  ,100.0,33,0,0,50
Fri Dec 27 17:21:30 2024
Created with Roseta converter
 1, 'BUS 1', 138.0, 3, 1, 1, 0, 1.06, 0.0, 0, 0, 1.1, 0.9
 2, 'BUS 2', 138.0, 2, 1, 1, 0, 1.04844, -0.0358, 0, 0, 1.1, 0.9
 3, 'BUS 3', 138.0, 2, 1, 1, 0, 1.01, -9.9009, 0, 0, 1.1, 0.9
 4, 'BUS 4', 138.0, 1, 1, 1, 0, 1.0242, -9.6856, 0, 0, 1.1, 0.9
 5, 'BUS 5', 138.0, 1, 1, 1, 0, 1.05319, -10.1077, 0, 0, 1.1, 0.9
 6, 'BUS 6', 138.0, 2, 1, 1, 0, 1.49702, -23.6347, 0, 0, 1.1, 0.9
 7, 'BUS 7', 138.0, 1, 1, 1, 0, 1.01254, -12.1391, 0, 0, 1.1, 0.9
 8, 'BUS 8', 138.0, 2, 1, 1, 0, 1.0527, -12.1391, 0, 0, 1.1, 0.9
 9, 'BUS 9', 138.0, 1, 1, 1, 0, 0.97, -13.5322, 0, 0, 1.1, 0.9
 10, 'BUS 10', 138.0, 1, 1, 1, 0, 1.0, -23.814, 0, 0, 1.1, 0.9
 11, 'BUS 11', 138.0, 1, 1, 1, 0, 1.23912, -23.567300000000003, 0, 0, 1.1, 0.9
 12, 'BUS 12', 138.0, 1, 1, 1, 0, 1.67337, -26.7076, 0, 0, 1.1, 0.9
 13, 'BUS 13', 138.0, 1, 1, 1, 0, 1.66199, -28.9651, 0, 0, 1.1, 0.9
 14, 'BUS 14', 138.0, 1, 1, 1, 0, 1.24638, -22.881500000000003, 0, 0, 1.1, 0.9
 15, 'NEW_BUS_1', 138.0, 1, 1, 1, 0, 1.04241, -0.27160000000000006, 0, 0, 1.1, 0.9
 16, 'NEW_BUS_2', 33.0, 1, 1, 1, 0, 0.99574, -1.037, 0, 0, 1.1, 0.9
 17, 'NEW_BUS_3', 400.0, 1, 1, 1, 0, 1.0179, -0.6421, 0, 0, 1.1, 0.9
 18, 'NUDOX1', 138.0, 1, 2, 2, 0, 1.03118, -10.6806, 0, 0, 1.1, 0.9
 19, 'NUDOX2', 138.0, 1, 2, 2, 0, 1.00146, -10.2907, 0, 0, 1.1, 0.9
 20, 'TR1_bus', 1.0, 1, 0, 0, 0, 1.0, 0.0, 0, 0, 1.1, 0.9
 0 / END OF BUS DATA, BEGIN LOAD DATA   
 2, 1, 1, 0, 0, 21.7, 12.7, 0.0, 0.0, 0.0, 0.0, 0, 1.0, 0
 3, 1, 1, 0, 0, 94.2, 19.0, 0.0, 0.0, 0.0, 0.0, 0, 1.0, 0
 4, 1, 1, 0, 0, 47.8, -3.9, 0.0, 0.0, 0.0, 0.0, 0, 1.0, 0
 5, 1, 1, 0, 0, 7.6, 1.6, 0.0, 0.0, 0.0, 0.0, 0, 1.0, 0
 6, 1, 1, 0, 0, 11.2, 7.5, 0.0, 0.0, 0.0, 0.0, 0, 1.0, 0
 9, 1, 1, 0, 0, 29.5, 16.6, 0.0, 0.0, 0.0, 0.0, 0, 1.0, 0
 10, 1, 1, 0, 0, 9.0, 5.8, 0.0, 0.0, 0.0, 0.0, 0, 1.0, 0
 11, 1, 1, 0, 0, 3.5, 1.8, 0.0, 0.0, 0.0, 0.0, 0, 1.0, 0
 12, 1, 1, 0, 0, 6.1, 1.6, 0.0, 0.0, 0.0, 0.0, 0, 1.0, 0
 13, 1, 1, 0, 0, 13.5, 5.8, 0.0, 0.0, 0.0, 0.0, 0, 1.0, 0
 14, 1, 1, 0, 0, 14.9, 5.0, 0.0, 0.0, 0.0, 0.0, 0, 1.0, 0
 16, 1, 1, 0, 0, 5.0, 5.0, 0.0, 0.0, 0.0, 0.0, 0, 1.0, 0
 17, 1, 1, 0, 0, 5.0, 5.0, 0.0, 0.0, 0.0, 0.0, 0, 1.0, 0
 18, 1, 1, 0, 0, 10.0, 10.0, 0.0, 0.0, 0.0, 0.0, 0, 1.0, 0
 19, 1, 1, 0, 0, 10.0, 10.0, 0.0, 0.0, 0.0, 0.0, 0, 1.0, 0
 0 / END OF LOAD DATA, BEGIN FIXED BUS SHUNT DATA  
 6, 3, 1, 0.1, 20.0
 6, 4, 1, 0.1, 20.0
 9, 2, 1, 0.0, 19.0
 0 / END OF FIXED BUS SHUNT DATA, BEGIN GENERATOR DATA
 1, 1, 92.677, 0, 0.0, 0.0, 1.06, 0, 615.0, 0, 0, 0, 0, 0, 1, 0, 10000.0, -10000.0, 0, 0, 0, 0, 0, 0, 0, 0, 0, 1.0
 2, 2, 319.0, 0, 50.0, -40.0, 1.045, 0, 60.0, 0, 0, 0, 0, 0, 1, 0, 10000.0, -10000.0, 0, 0, 0, 0, 0, 0, 0, 0, 0, 1.0
 3, 2, 0.0, 0, 40.0, 0.0, 1.01, 0, 60.0, 0, 0, 0, 0, 0, 1, 0, 10000.0, -10000.0, 0, 0, 0, 0, 0, 0, 0, 0, 0, 1.0
 6, 2, 0.0, 0, 24.0, -6.0, 1.07, 0, 25.0, 0, 0, 0, 0, 0, 1, 0, 10000.0, -10000.0, 0, 0, 0, 0, 0, 0, 0, 0, 0, 1.0
 8, 1, 0.0, 0, 24.0, -6.0, 1.09, 0, 25.0, 0, 0, 0, 0, 0, 1, 0, 10000.0, -10000.0, 0, 0, 0, 0, 0, 0, 0, 0, 0, 1.0
 0 / END OF GENERATOR DATA, BEGIN NONTRANSFORMER BRANCH DATA  
 1, 2, 1, 0.01938, 0.05917, 0.0528, 600.0, 700.0002, 799.9998, 0.0, 0.0, 0.0, 0.0, 1, 1, 0.0, 0, 0.0, 0, 0.0, 0, 0.0, 0, 0.0
 1, 5, 1, 0.05403, 0.22304, 0.0492, 600.0, 700.0002, 799.9998, 0.0, 0.0, 0.0, 0.0, 1, 1, 0.0, 0, 0.0, 0, 0.0, 0, 0.0, 0, 0.0
 2, 3, 1, 0.04699, 0.19797, 0.0438, 600.0, 700.0002, 799.9998, 0.0, 0.0, 0.0, 0.0, 1, 1, 0.0, 0, 0.0, 0, 0.0, 0, 0.0, 0, 0.0
 2, 4, 1, 0.05811, 0.17632, 0.034, 600.0, 700.0002, 799.9998, 0.0, 0.0, 0.0, 0.0, 1, 1, 0.0, 0, 0.0, 0, 0.0, 0, 0.0, 0, 0.0
 2, 5, 1, 0.05695, 0.17388, 0.0346, 600.0, 700.0002, 799.9998, 0.0, 0.0, 0.0, 0.0, 1, 1, 0.0, 0, 0.0, 0, 0.0, 0, 0.0, 0, 0.0
 2, 15, 1, 0.01938, 0.05917, 0.0528, 600.0, 700.0002, 799.9998, 0.0, 0.0, 0.0, 0.0, 1, 1, 0.0, 0, 0.0, 0, 0.0, 0, 0.0, 0, 0.0
 3, 4, 1, 0.06701, 0.17103, 0.0128, 600.0, 700.0002, 799.9998, 0.0, 0.0, 0.0, 0.0, 1, 1, 0.0, 0, 0.0, 0, 0.0, 0, 0.0, 0, 0.0
 4, 5, 1, 0.01335, 0.04211, 0.0, 600.0, 700.0002, 799.9998, 0.0, 0.0, 0.0, 0.0, 1, 1, 0.0, 0, 0.0, 0, 0.0, 0, 0.0, 0, 0.0
 4, 19, 1, 0.06701, 0.17103, 0.0128, 600.0, 700.0002, 799.9998, 0.0, 0.0, 0.0, 0.0, 1, 1, 0.0, 0, 0.0, 0, 0.0, 0, 0.0, 0, 0.0
 5, 18, 1, 0.06701, 0.17103, 0.0128, 600.0, 700.0002, 799.9998, 0.0, 0.0, 0.0, 0.0, 1, 1, 0.0, 0, 0.0, 0, 0.0, 0, 0.0, 0, 0.0
 6, 11, 1, 0.09498, 0.1989, 0.0, 600.0, 700.0002, 799.9998, 0.0, 0.0, 0.0, 0.0, 1, 1, 0.0, 0, 0.0, 0, 0.0, 0, 0.0, 0, 0.0
 6, 12, 1, 0.12291, 0.25581, 0.0, 600.0, 700.0002, 799.9998, 0.0, 0.0, 0.0, 0.0, 1, 1, 0.0, 0, 0.0, 0, 0.0, 0, 0.0, 0, 0.0
 6, 13, 1, 0.06615, 0.13027, 0.0, 600.0, 700.0002, 799.9998, 0.0, 0.0, 0.0, 0.0, 1, 1, 0.0, 0, 0.0, 0, 0.0, 0, 0.0, 0, 0.0
 7, 8, 1, 0.0, 0.17615, 0.0, 600.0, 700.0002, 799.9998, 0.0, 0.0, 0.0, 0.0, 1, 1, 0.0, 0, 0.0, 0, 0.0, 0, 0.0, 0, 0.0
 7, 9, 1, 0.0, 0.11001, 0.0, 600.0, 700.0002, 799.9998, 0.0, 0.0, 0.0, 0.0, 1, 1, 0.0, 0, 0.0, 0, 0.0, 0, 0.0, 0, 0.0
 9, 10, 1, 0.03181, 0.0845, 0.0, 600.0, 700.0002, 799.9998, 0.0, 0.0, 0.0, 0.0, 1, 1, 0.0, 0, 0.0, 0, 0.0, 0, 0.0, 0, 0.0
 9, 14, 1, 0.12711, 0.27038, 0.0, 600.0, 700.0002, 799.9998, 0.0, 0.0, 0.0, 0.0, 1, 1, 0.0, 0, 0.0, 0, 0.0, 0, 0.0, 0, 0.0
 10, 11, 1, 0.08205, 0.19207, 0.0, 600.0, 700.0002, 799.9998, 0.0, 0.0, 0.0, 0.0, 1, 1, 0.0, 0, 0.0, 0, 0.0, 0, 0.0, 0, 0.0
 12, 13, 1, 0.22092, 0.19988, 0.0, 600.0, 700.0002, 799.9998, 0.0, 0.0, 0.0, 0.0, 1, 1, 0.0, 0, 0.0, 0, 0.0, 0, 0.0, 0, 0.0
 13, 14, 1, 0.17093, 0.34802, 0.0, 600.0, 700.0002, 799.9998, 0.0, 0.0, 0.0, 0.0, 1, 1, 0.0, 0, 0.0, 0, 0.0, 0, 0.0, 0, 0.0
 0 / END OF NONTRANSFORMER BRANCH DATA, BEGIN SYSTEM SWITCHING DEVICE DATA
 0 / END OF SYSTEM SWITCHING DEVICE DATA, BEGIN TRANSFORMER DATA
 4, 7, 0, 1, 1, 1, 1, 0.0, 0.0, 2, '', 1, 0, 0.0, 0, 0.0, 0, 0.0, 0, 0.0, ''
0.0, 0.20912, 100.0
0.978, 138.0, 0, 100.0, 110.00000000000001, 120.0, 0, 0, 1.1, 0.9, 1.0, 1.0, 2, 0, 0, 0, 0
1.0, 138.0
 4, 9, 0, 1, 1, 1, 1, 0.0, 0.0, 2, '', 1, 0, 0.0, 0, 0.0, 0, 0.0, 0, 0.0, ''
0.0, 0.55618, 100.0
0.969, 138.0, 0, 100.0, 110.00000000000001, 120.0, 0, 0, 1.1, 0.9, 1.0, 1.0, 2, 0, 0, 0, 0
1.0, 138.0
 5, 6, 0, 1, 1, 1, 1, 0.0, 0.0, 2, '', 1, 0, 0.0, 0, 0.0, 0, 0.0, 0, 0.0, ''
0.0, 0.25202, 100.0
0.932, 138.0, 0, 100.0, 110.00000000000001, 120.0, 0, 0, 1.1, 0.9, 1.0, 1.0, 2, 0, 0, 0, 0
1.0, 138.0
 12, 13, 0, 2, 1, 1, 1, 0.0, 0.0, 2, '', 1, 0, 0.0, 0, 0.0, 0, 0.0, 0, 0.0, ''
0.0001, 0.0041, 100.0
1.0, 138.0, 0, 1270.0, 1270.0, 1270.0, 0, 0, 1.1, 0.9, 1.0, 1.0, 2, 0, 0, 0, 0
1.0, 138.0
 15, 17, 16, '1', 1, 1, 1, 0, 0, 2, 'TR1', 1, 0, 0.0, 0, 0.0, 0, 0.0, 0, 0.0, ''
0.0, 0.0, 100.0, 0.0, 0.0, 100.0, 0.0, 0.0, 100.0, 1.0, 0.0
1.0, 0, 0.0, 300.0, 300.0, 420.0, 0, 0, 1.1, 0.9, 1.1, 0.9, 33, 0, 0, 0, 0
0, 0, 0.0, 300.0, 300.0, 420.0, 0, 0, 1.1, 0.9, 1.1, 0.9, 33, 0, 0, 0, 0
0, 0, 0.0, 90.0, 90.0, 125.99999999999999, 0, 0, 1.1, 0.9, 1.1, 0.9, 0, 0, 0, 0, 0
 0 / END OF TRANSFORMER DATA, BEGIN AREA INTERCHANGE DATA 
 1, 0, 0.0, 0.0, 'IEEE14'
 2, 0, 0.0, 0.0, 'EU'
 0 / END OF AREA INTERCHANGE DATA, BEGIN TWO-TERMINAL DC LINE DATA 
 '"CBX-CS1     "', 0, 1e-20, 0, 0, 0, 0, 0, 'I', 0, 20, 1.0
9, 0, 57.29577951308232, -57.29577951308232, 0, 0, 0, 1.0, 0, 1.5, 0.51, 0.00625, 0, 0, 0, '1', 0
10, 0, 57.29577951308232, -57.29577951308232, 0, 0, 0, 1.0, 0, 1.5, 0.51, 0.00625, 0, 0, 0, '1', 0
 '"CBX-CS2     "', 0, 1e-20, 0, 0, 0, 0, 0, 'I', 0, 20, 1.0
9, 0, 57.29577951308232, -57.29577951308232, 0, 0, 0, 1.0, 0, 1.5, 0.51, 0.00625, 0, 0, 0, '1', 0
10, 0, 57.29577951308232, -57.29577951308232, 0, 0, 0, 1.0, 0, 1.5, 0.51, 0.00625, 0, 0, 0, '1', 0
 0 / END OF TWO-TERMINAL DC LINE DATA, BEGIN VSC DC LINE DATA 
 '"CBX-CS1     "', 1, 0, 0, 0.0, 0, 0.0, 0, 0.0, 0, 0.0
0, 1, 1, 0, 0.97, 0, 0, 0, 0, 0, 0, 0, 0, 0, 0
0, 0, 0, 0, 1.0, 0, 0, 0, 0, 0, 0, 0, 0, 0, 100.0
 '"CBX-CS2     "', 1, 0, 0, 0.0, 0, 0.0, 0, 0.0, 0, 0.0
0, 1, 1, 0, 0.97, 0, 0, 0, 0, 0, 0, 0, 0, 0, 0
0, 0, 0, 0, 1.0, 0, 0, 0, 0, 0, 0, 0, 0, 0, 100.0
 0 / END OF VSC DC LINE DATA, BEGIN TRANSFORMER IMPEDANCE CORRECTION DATA 
 0 / END OF TRANSFORMER IMPEDANCE CORRECTION DATA, BEGIN MULTI-TERMINAL DC LINE DATA 
 0 / END OF MULTI-TERMINAL DC LINE DATA, BEGIN MULTI-SECTION LINE GROUP DATA 
 0 / END OF MULTI-SECTION LINE GROUP DATA, BEGIN ZONE DATA
 1, 'IEEE14'
 2, 'EU'
 0 / END OF ZONE DATA, BEGIN INTER-AREA TRANSFER DATA 
 0 / END OF INTER-AREA TRANSFER DATA, BEGIN OWNER DATA 
 0 / END OF OWNER DATA, BEGIN FACTS CONTROL DEVICE DATA 
 0 / END OF FACTS CONTROL DEVICE DATA, BEGIN SWITCHED SHUNT DATA
 12, 0, 0, 0, 1, 1, 0, 1, '', 0, 3, 0.0, 0, 0.0, 0, 0.0, 0, 0.0, 0, 0.0, 0, 0.0, 0, 0.0, 0, 0.0
 12, 0, 0, 0, 1, 1, 0, 1, '', 0, 2, 0.0, 0, 0.0, 0, 0.0, 0, 0.0, 0, 0.0, 0, 0.0, 0, 0.0, 0, 0.0
 0 / END OF SWITCHED SHUNT DATA, BEGIN GNE DATA
 0 / END OF GNE DATA, BEGIN SUBSTATION DATA
0 / END OF SUBSTATION DATA
Q
