@!IC, SBASE,REV,XFRRAT,NXFRAT,BASFRQ
0,   100.00, 34,     0,     0, 60.00     / PSS(R)E-34.6    WED, JAN 31 2024  13:17
THIS IS A SYNTHETIC POWER SYSTEM MODEL THAT DOES NOT REPRESE
DATA RESEARCH PROJECT AND CONTAINS NO CEII.
GENERAL, THRSHZ=0.0001, PQBRAK=0.7, BLOWUP=5.0
GAUSS, ITMX=100, ACCP=1.6, ACCQ=1.6, ACCM=1.0, TOL=0.0001
NEWTON, ITMXN=20, ACCN=1.0, TOLN=0.1, VCTOLQ=0.1, VCTOLV=0.00001, DVLIM=0.99, NDVFCT=0.99
ADJUST, ADJTHR=0.005, ACCTAP=1.0, TAPLIM=0.05, SWVBND=100.0, MXTPSS=99, MXSWIM=10
TYSL, ITMXTY=20, ACCTY=1.0, TOLTY=0.00001
RATING, 1, "RATE1 ", "RATING SET 1                    "
RATING, 2, "RATE2 ", "RATING SET 2                    "
RATING, 3, "RATE3 ", "RATING SET 3                    "
RATING, 4, "RATE4 ", "RATING SET 4                    "
RATING, 5, "RATE5 ", "RATING SET 5                    "
RATING, 6, "RATE6 ", "RATING SET 6                    "
RATING, 7, "RATE7 ", "RATING SET 7                    "
RATING, 8, "RATE8 ", "RATING SET 8                    "
RATING, 9, "RATE9 ", "RATING SET 9                    "
RATING,10, "RATE10", "RATING SET 10                   "
RATING,11, "RATE11", "RATING SET 11                   "
RATING,12, "RATE12", "RATING SET 12                   "
0 / END OF SYSTEM-WIDE DATA, BEGIN BUS DATA
@!   I,'NAME        ', BASKV, IDE,AREA,ZONE,OWNER, VM,        VA,    NVHI,   NVLO,   EVHI,   EVLO
  1001,'NODE_1001   ', 115.0000,1,   1,   9,   1,0.97944, -22.7348,1.10000,0.90000,1.10000,0.90000
  1002,'NODE_1002   ', 115.0000,1,   1,   9,   1,1.01274, -18.0885,1.10000,0.90000,1.10000,0.90000
  1003,'NODE_1003   ', 115.0000,1,   1,   9,   1,1.00926, -17.0867,1.10000,0.90000,1.10000,0.90000
  1004,'NODE_1004   ', 230.0000,2,   1,   9,   1,1.01307, -18.9340,1.10000,0.90000,1.10000,0.90000
  1005,'NODE_1005   ', 115.0000,1,   1,   9,   1,1.00558, -16.0772,1.10000,0.90000,1.10000,0.90000
  1006,'NODE_1006   ',  13.8000,2,   1,   9,   1,1.00000, -13.9056,1.10000,0.90000,1.10000,0.90000
  1007,'NODE_1007   ', 115.0000,1,   1,   9,   1,1.02000, -18.4672,1.10000,0.90000,1.10000,0.90000
  1008,'NODE_1008   ', 115.0000,1,   1,   9,   1,1.01928,  -8.6052,1.10000,0.90000,1.10000,0.90000
  1009,'NODE_1009   ',  13.8000,2,   1,   9,   1,1.00924,  -5.3096,1.10000,0.90000,1.10000,0.90000
  1010,'NODE_1010   ', 115.0000,1,   1,   9,   1,1.02000, -16.7924,1.10000,0.90000,1.10000,0.90000
  1011,'NODE_1011   ',  22.0000,2,   1,   9,   1,1.02021, -15.0098,1.10000,0.90000,1.10000,0.90000
  1012,'NODE_1012   ', 115.0000,1,   1,   9,   1,1.00599, -25.3428,1.10000,0.90000,1.10000,0.90000
  1013,'NODE_1013   ', 115.0000,1,   1,   9,   1,1.00568, -15.4366,1.10000,0.90000,1.10000,0.90000
  1014,'NODE_1014   ', 115.0000,1,   1,   9,   1,1.01235, -11.9132,1.10000,0.90000,1.10000,0.90000
  1015,'NODE_1015   ', 115.0000,1,   1,   9,   1,1.02182, -18.2145,1.10000,0.90000,1.10000,0.90000
  1016,'NODE_1016   ', 115.0000,1,   1,   9,   1,1.01741, -15.4854,1.10000,0.90000,1.10000,0.90000
  1017,'NODE_1017   ', 115.0000,1,   1,   9,   1,0.98167, -21.4262,1.10000,0.90000,1.10000,0.90000
  1018,'NODE_1018   ', 115.0000,1,   1,   9,   1,0.99115, -20.2161,1.10000,0.90000,1.10000,0.90000
  1019,'NODE_1019   ', 115.0000,1,   1,   9,   1,0.99949, -22.3204,1.10000,0.90000,1.10000,0.90000
  1020,'NODE_1020   ', 115.0000,1,   1,   9,   1,1.02000, -15.2301,1.10000,0.90000,1.10000,0.90000
  1021,'NODE_1021   ',  13.8000,2,   1,   9,   1,1.00000,  -8.6068,1.10000,0.90000,1.10000,0.90000
  1022,'NODE_1022   ', 115.0000,1,   1,   9,   1,1.01242, -16.2047,1.10000,0.90000,1.10000,0.90000
  1023,'NODE_1023   ',  13.8000,2,   1,   9,   1,1.01000,  -7.3004,1.10000,0.90000,1.10000,0.90000
  1024,'NODE_1024   ', 115.0000,1,   1,   9,   1,0.99450, -19.2002,1.10000,0.90000,1.10000,0.90000
  1025,'NODE_1025   ', 115.0000,1,   1,   9,   1,1.01629, -14.1704,1.10000,0.90000,1.10000,0.90000
  1026,'NODE_1026   ',  13.8000,2,   1,   9,   1,1.00000,  -4.6415,1.10000,0.90000,1.10000,0.90000
  1027,'NODE_1027   ', 115.0000,1,   1,   9,   1,1.00530, -25.8333,1.10000,0.90000,1.10000,0.90000
  1028,'NODE_1028   ', 115.0000,1,   1,   9,   1,1.01542, -17.7171,1.10000,0.90000,1.10000,0.90000
  1029,'NODE_1029   ', 115.0000,1,   1,   9,   1,1.00242, -24.8589,1.10000,0.90000,1.10000,0.90000
  1030,'NODE_1030   ', 115.0000,1,   1,   9,   1,1.01223, -13.4114,1.10000,0.90000,1.10000,0.90000
  1031,'NODE_1031   ', 115.0000,1,   1,   9,   1,1.01219, -17.6723,1.10000,0.90000,1.10000,0.90000
  1032,'NODE_1032   ', 115.0000,1,   1,   9,   1,1.00066, -12.2805,1.10000,0.90000,1.10000,0.90000
  1033,'NODE_1033   ', 230.0000,2,   1,   9,   1,1.01675, -16.8985,1.10000,0.90000,1.10000,0.90000
  1034,'NODE_1034   ', 115.0000,1,   1,   9,   1,1.00453, -14.3203,1.10000,0.90000,1.10000,0.90000
  1035,'NODE_1035   ',  13.8000,2,   1,   9,   1,1.00000, -11.0304,1.10000,0.90000,1.10000,0.90000
  1036,'NODE_1036   ', 115.0000,1,   1,   9,   1,0.99762, -12.5270,1.10000,0.90000,1.10000,0.90000
  1037,'NODE_1037   ', 115.0000,1,   1,   9,   1,0.97450, -22.5448,1.10000,0.90000,1.10000,0.90000
  1038,'NODE_1038   ', 115.0000,1,   1,   9,   1,1.01657,  -7.6466,1.10000,0.90000,1.10000,0.90000
  1039,'NODE_1039   ',  22.0000,2,   1,   9,   1,1.00000,  -2.2631,1.10000,0.90000,1.10000,0.90000
  1040,'NODE_1040   ', 115.0000,1,   1,   9,   1,0.99401, -20.4800,1.10000,0.90000,1.10000,0.90000
  1041,'NODE_1041   ', 115.0000,1,   1,   9,   1,1.00177, -15.1075,1.10000,0.90000,1.10000,0.90000
  1042,'NODE_1042   ',  13.8000,2,   1,   9,   1,1.00177, -15.1075,1.10000,0.90000,1.10000,0.90000
  1043,'NODE_1043   ',  13.8000,2,   1,   9,   1,1.00000, -11.8642,1.10000,0.90000,1.10000,0.90000
  1044,'NODE_1044   ', 115.0000,1,   1,   9,   1,1.00676, -25.9639,1.10000,0.90000,1.10000,0.90000
  1045,'NODE_1045   ', 115.0000,1,   1,   9,   1,0.97743, -24.4476,1.10000,0.90000,1.10000,0.90000
  1046,'NODE_1046   ', 115.0000,1,   1,   9,   1,1.01763, -22.4914,1.10000,0.90000,1.10000,0.90000
  1047,'NODE_1047   ', 115.0000,1,   1,   9,   1,1.00525, -13.3501,1.10000,0.90000,1.10000,0.90000
  1048,'NODE_1048   ',  18.0000,2,   1,   9,   1,1.00525, -13.3501,1.10000,0.90000,1.10000,0.90000
  1049,'NODE_1049   ',  18.0000,2,   1,   9,   1,1.00525, -13.3501,1.10000,0.90000,1.10000,0.90000
  1050,'NODE_1050   ',  18.0000,2,   1,   9,   1,1.00000,  -8.2848,1.10000,0.90000,1.10000,0.90000
  1051,'NODE_1051   ',  18.0000,2,   1,   9,   1,1.00000,  -6.8074,1.10000,0.90000,1.10000,0.90000
  1052,'NODE_1052   ',  18.0000,2,   1,   9,   1,1.00000,  -9.1344,1.10000,0.90000,1.10000,0.90000
  1053,'NODE_1053   ', 230.0000,2,   1,   9,   1,1.01741, -17.3362,1.10000,0.90000,1.10000,0.90000
  1054,'NODE_1054   ', 115.0000,1,   1,   9,   1,1.00368, -22.2923,1.10000,0.90000,1.10000,0.90000
  1055,'NODE_1055   ', 115.0000,1,   1,   9,   1,1.00141, -18.1296,1.10000,0.90000,1.10000,0.90000
  1056,'NODE_1056   ', 115.0000,1,   1,   9,   1,1.02000, -21.8196,1.10000,0.90000,1.10000,0.90000
  1057,'NODE_1057   ',  18.0000,2,   1,   9,   1,1.02000, -21.8196,1.10000,0.90000,1.10000,0.90000
  1058,'NODE_1058   ', 115.0000,1,   1,   9,   1,1.01937, -11.2209,1.10000,0.90000,1.10000,0.90000
  1059,'NODE_1059   ',  22.0000,2,   1,   9,   1,1.01937, -11.2209,1.10000,0.90000,1.10000,0.90000
  1060,'NODE_1060   ',  22.0000,2,   1,   9,   1,1.01937, -11.2209,1.10000,0.90000,1.10000,0.90000
  1061,'NODE_1061   ', 115.0000,1,   1,   9,   1,1.00656, -17.2194,1.10000,0.90000,1.10000,0.90000
  1062,'NODE_1062   ',  13.8000,2,   1,   9,   1,1.00656, -17.2194,1.10000,0.90000,1.10000,0.90000
  1063,'NODE_1063   ',  13.8000,2,   1,   9,   1,1.00656, -17.2194,1.10000,0.90000,1.10000,0.90000
  1064,'NODE_1064   ', 115.0000,1,   1,   9,   1,0.97203, -24.1533,1.10000,0.90000,1.10000,0.90000
  1065,'NODE_1065   ', 115.0000,1,   1,   9,   1,1.00426, -14.9326,1.10000,0.90000,1.10000,0.90000
  1066,'NODE_1066   ',  13.8000,2,   1,   9,   1,1.00000,  -7.3991,1.10000,0.90000,1.10000,0.90000
  1067,'NODE_1067   ', 115.0000,1,   1,   9,   1,0.99860, -15.6825,1.10000,0.90000,1.10000,0.90000
  1068,'NODE_1068   ', 115.0000,1,   1,   9,   1,0.98680, -16.4369,1.10000,0.90000,1.10000,0.90000
  1069,'NODE_1069   ', 115.0000,1,   1,   9,   1,1.02256,  -8.7326,1.10000,0.90000,1.10000,0.90000
  1070,'NODE_1070   ',  13.8000,2,   1,   9,   1,1.04000,  -4.2288,1.10000,0.90000,1.10000,0.90000
  1071,'NODE_1071   ', 115.0000,1,   1,   9,   1,0.98703, -21.4740,1.10000,0.90000,1.10000,0.90000
  1072,'NODE_1072   ',  18.0000,2,   1,   9,   1,1.01000, -12.1100,1.10000,0.90000,1.10000,0.90000
  1073,'NODE_1073   ',  18.0000,2,   1,   9,   1,1.01000,  -5.6820,1.10000,0.90000,1.10000,0.90000
  1074,'NODE_1074   ',  18.0000,2,   1,   9,   1,1.01000,  -7.7380,1.10000,0.90000,1.10000,0.90000
  1075,'NODE_1075   ',  18.0000,2,   1,   9,   1,1.01000, -10.5055,1.10000,0.90000,1.10000,0.90000
  1076,'NODE_1076   ',  18.0000,2,   1,   9,   1,0.98703, -21.4740,1.10000,0.90000,1.10000,0.90000
  1077,'NODE_1077   ',  18.0000,2,   1,   9,   1,0.98703, -21.4740,1.10000,0.90000,1.10000,0.90000
  1078,'NODE_1078   ',  18.0000,2,   1,   9,   1,1.01000, -11.0247,1.10000,0.90000,1.10000,0.90000
  1079,'NODE_1079   ', 500.0000,2,   1,   9,   1,1.01621, -38.5829,1.10000,0.90000,1.10000,0.90000
  1080,'NODE_1080   ',  18.0000,2,   1,   9,   1,1.01000, -10.4487,1.10000,0.90000,1.10000,0.90000
  1081,'NODE_1081   ', 230.0000,2,   1,   9,   1,1.02000, -18.6913,1.10000,0.90000,1.10000,0.90000
  1082,'NODE_1082   ', 115.0000,2,   1,   9,   1,1.01941,  -5.9104,1.10000,0.90000,1.10000,0.90000
  1083,'NODE_1083   ', 115.0000,1,   1,   9,   1,1.01886,  -9.8867,1.10000,0.90000,1.10000,0.90000
  1084,'NODE_1084   ', 115.0000,2,   1,   9,   1,1.02252, -16.4672,1.10000,0.90000,1.10000,0.90000
  1085,'NODE_1085   ', 115.0000,1,   1,   9,   1,1.00899, -15.3429,1.10000,0.90000,1.10000,0.90000
  1086,'NODE_1086   ', 115.0000,1,   1,   9,   1,1.01537, -17.5851,1.10000,0.90000,1.10000,0.90000
  1087,'NODE_1087   ', 115.0000,1,   1,   9,   1,1.02000, -16.1254,1.10000,0.90000,1.10000,0.90000
  1088,'NODE_1088   ', 115.0000,2,   1,   9,   1,1.00000, -11.8785,1.10000,0.90000,1.10000,0.90000
  1089,'NODE_1089   ', 115.0000,1,   1,   9,   1,0.98063, -21.3068,1.10000,0.90000,1.10000,0.90000
  1090,'NODE_1090   ', 115.0000,2,   1,   9,   1,1.02000, -16.1451,1.10000,0.90000,1.10000,0.90000
  1091,'NODE_1091   ', 161.0000,1,   1,   9,   1,1.02483, -31.0177,1.10000,0.90000,1.10000,0.90000
  2001,'NODE_2001   ', 161.0000,1,   2,  11,   1,1.00175, -59.9821,1.10000,0.90000,1.10000,0.90000
  2002,'NODE_2002   ', 500.0000,1,   2,  11,   1,1.01106, -61.5666,1.10000,0.90000,1.10000,0.90000
  2003,'NODE_2003   ', 161.0000,1,   2,  11,   1,1.00934, -63.8285,1.10000,0.90000,1.10000,0.90000
  2004,'NODE_2004   ',  13.8000,2,   2,  11,   1,1.01106, -61.5666,1.10000,0.90000,1.10000,0.90000
  2005,'NODE_2005   ',  13.8000,2,   2,  11,   1,1.01106, -61.5666,1.10000,0.90000,1.10000,0.90000
  2006,'NODE_2006   ',  13.8000,2,   2,  11,   1,1.01106, -61.5666,1.10000,0.90000,1.10000,0.90000
  2007,'NODE_2007   ', 161.0000,1,   2,  11,   1,1.00251, -59.7519,1.10000,0.90000,1.10000,0.90000
  2008,'NODE_2008   ', 161.0000,1,   2,  10,   1,1.01613, -32.8330,1.10000,0.90000,1.10000,0.90000
  2009,'NODE_2009   ', 161.0000,1,   2,  11,   1,1.02000, -45.2154,1.10000,0.90000,1.10000,0.90000
  2010,'NODE_2010   ', 161.0000,1,   2,  10,   1,1.02000, -36.4051,1.10000,0.90000,1.10000,0.90000
  2011,'NODE_2011   ', 500.0000,1,   2,  10,   1,1.03887, -32.1010,1.10000,0.90000,1.10000,0.90000
  2012,'NODE_2012   ', 161.0000,1,   2,  10,   1,1.02710, -29.8692,1.10000,0.90000,1.10000,0.90000
  2013,'NODE_2013   ',  18.0000,2,   2,  10,   1,1.03051, -29.7610,1.10000,0.90000,1.10000,0.90000
  2014,'NODE_2014   ', 161.0000,1,   2,  10,   1,1.01449, -33.4089,1.10000,0.90000,1.10000,0.90000
  2015,'NODE_2015   ', 161.0000,1,   2,  11,   1,1.00608, -63.2928,1.10000,0.90000,1.10000,0.90000
  2016,'NODE_2016   ', 161.0000,1,   2,  11,   1,1.00602, -69.9548,1.10000,0.90000,1.10000,0.90000
  2017,'NODE_2017   ', 500.0000,1,   2,  10,   1,1.02839, -32.2468,1.10000,0.90000,1.10000,0.90000
  2018,'NODE_2018   ', 161.0000,1,   2,  10,   1,1.02649, -31.4567,1.10000,0.90000,1.10000,0.90000
  2019,'NODE_2019   ',  20.0000,2,   2,  10,   1,1.02839, -32.2468,1.10000,0.90000,1.10000,0.90000
  2020,'NODE_2020   ', 161.0000,1,   2,  11,   1,0.99517, -44.8854,1.10000,0.90000,1.10000,0.90000
  2021,'NODE_2021   ', 500.0000,1,   2,  11,   1,1.01387, -56.7024,1.10000,0.90000,1.10000,0.90000
  2022,'NODE_2022   ', 161.0000,1,   2,  11,   1,1.01001, -58.6376,1.10000,0.90000,1.10000,0.90000
  2023,'NODE_2023   ',  13.8000,2,   2,  11,   1,1.02000, -55.1395,1.10000,0.90000,1.10000,0.90000
  2024,'NODE_2024   ',  13.8000,2,   2,  11,   1,1.02000, -54.4741,1.10000,0.90000,1.10000,0.90000
  2025,'NODE_2025   ', 161.0000,1,   2,  11,   1,0.99407, -44.1241,1.10000,0.90000,1.10000,0.90000
  2026,'NODE_2026   ', 161.0000,1,   2,  10,   1,1.02648, -31.0815,1.10000,0.90000,1.10000,0.90000
  2027,'NODE_2027   ', 161.0000,1,   2,  11,   1,1.00220, -60.4130,1.10000,0.90000,1.10000,0.90000
  2028,'NODE_2028   ', 161.0000,1,   2,  11,   1,0.99459, -47.2498,1.10000,0.90000,1.10000,0.90000
  2029,'NODE_2029   ', 161.0000,1,   2,  10,   1,1.02005, -32.7814,1.10000,0.90000,1.10000,0.90000
  2030,'NODE_2030   ', 161.0000,1,   2,  11,   1,0.98837, -64.0398,1.10000,0.90000,1.10000,0.90000
  2031,'NODE_2031   ', 161.0000,1,   2,  10,   1,1.02046, -29.6387,1.10000,0.90000,1.10000,0.90000
  2032,'NODE_2032   ', 161.0000,1,   2,  11,   1,1.00454, -59.1469,1.10000,0.90000,1.10000,0.90000
  2033,'NODE_2033   ', 161.0000,1,   2,  11,   1,0.99087, -65.5522,1.10000,0.90000,1.10000,0.90000
  2034,'NODE_2034   ', 161.0000,1,   2,  11,   1,1.00462, -69.2831,1.10000,0.90000,1.10000,0.90000
  2035,'NODE_2035   ', 161.0000,1,   2,  10,   1,1.01521, -30.5607,1.10000,0.90000,1.10000,0.90000
  2036,'NODE_2036   ', 161.0000,1,   2,  11,   1,0.99894, -44.4832,1.10000,0.90000,1.10000,0.90000
  2037,'NODE_2037   ', 161.0000,1,   2,  11,   1,1.01668, -63.6261,1.10000,0.90000,1.10000,0.90000
  2038,'NODE_2038   ', 161.0000,1,   2,  11,   1,1.00633, -64.3013,1.10000,0.90000,1.10000,0.90000
  2039,'NODE_2039   ', 161.0000,1,   2,  11,   1,0.99125, -60.6712,1.10000,0.90000,1.10000,0.90000
  2040,'NODE_2040   ', 161.0000,1,   2,  11,   1,1.00744, -59.3080,1.10000,0.90000,1.10000,0.90000
  2041,'NODE_2041   ', 161.0000,1,   2,  10,   1,1.02802, -27.6861,1.10000,0.90000,1.10000,0.90000
  2042,'NODE_2042   ',  18.0000,2,   2,  10,   1,1.01943, -25.1108,1.10000,0.90000,1.10000,0.90000
  2043,'NODE_2043   ', 161.0000,1,   2,  11,   1,1.00505, -69.5896,1.10000,0.90000,1.10000,0.90000
  2044,'NODE_2044   ', 161.0000,1,   2,  11,   1,1.01306, -65.3833,1.10000,0.90000,1.10000,0.90000
  2045,'NODE_2045   ', 161.0000,1,   2,  11,   1,0.99445, -45.4240,1.10000,0.90000,1.10000,0.90000
  2046,'NODE_2046   ', 161.0000,1,   2,  11,   1,1.00456, -68.8968,1.10000,0.90000,1.10000,0.90000
  2047,'NODE_2047   ', 161.0000,1,   2,  11,   1,1.00790, -64.7299,1.10000,0.90000,1.10000,0.90000
  2048,'NODE_2048   ', 161.0000,1,   2,  10,   1,1.02370, -31.7110,1.10000,0.90000,1.10000,0.90000
  2049,'NODE_2049   ', 161.0000,1,   2,  10,   1,1.01776, -40.9465,1.10000,0.90000,1.10000,0.90000
  2050,'NODE_2050   ', 161.0000,1,   2,  11,   1,0.99419, -63.2354,1.10000,0.90000,1.10000,0.90000
  2051,'NODE_2051   ', 161.0000,1,   2,  11,   1,0.98955, -54.1403,1.10000,0.90000,1.10000,0.90000
  2052,'NODE_2052   ', 161.0000,1,   2,  10,   1,1.01744, -31.9635,1.10000,0.90000,1.10000,0.90000
  2053,'NODE_2053   ', 161.0000,1,   2,  11,   1,0.99106, -59.3604,1.10000,0.90000,1.10000,0.90000
  2054,'NODE_2054   ', 500.0000,1,   2,  11,   1,0.99778, -43.1313,1.10000,0.90000,1.10000,0.90000
  2055,'NODE_2055   ', 161.0000,1,   2,  11,   1,0.99733, -43.9607,1.10000,0.90000,1.10000,0.90000
  2056,'NODE_2056   ',  18.0000,2,   2,  11,   1,0.99778, -43.1313,1.10000,0.90000,1.10000,0.90000
  2057,'NODE_2057   ',  18.0000,2,   2,  11,   1,0.99000, -38.7253,1.10000,0.90000,1.10000,0.90000
  2058,'NODE_2058   ', 161.0000,1,   2,  10,   1,1.02836, -27.2580,1.10000,0.90000,1.10000,0.90000
  2059,'NODE_2059   ',  13.8000,2,   2,  10,   1,1.01836, -23.9117,1.10000,0.90000,1.10000,0.90000
  2060,'NODE_2060   ', 161.0000,1,   2,  11,   1,0.99740, -61.9510,1.10000,0.90000,1.10000,0.90000
  2061,'NODE_2061   ', 161.0000,1,   2,  10,   1,1.02118, -37.4278,1.10000,0.90000,1.10000,0.90000
  2062,'NODE_2062   ',  18.0000,2,   2,  10,   1,1.02000, -35.1310,1.10000,0.90000,1.10000,0.90000
  2063,'NODE_2063   ', 161.0000,1,   2,  11,   1,1.00606, -68.2584,1.10000,0.90000,1.10000,0.90000
  2064,'NODE_2064   ', 161.0000,1,   2,  11,   1,1.00311, -60.2774,1.10000,0.90000,1.10000,0.90000
  2065,'NODE_2065   ', 161.0000,1,   2,  11,   1,1.02000, -65.6007,1.10000,0.90000,1.10000,0.90000
  2066,'NODE_2066   ', 161.0000,1,   2,  10,   1,1.01444, -27.6288,1.10000,0.90000,1.10000,0.90000
  2067,'NODE_2067   ', 161.0000,1,   2,  11,   1,0.99236, -44.0480,1.10000,0.90000,1.10000,0.90000
  2068,'NODE_2068   ', 161.0000,1,   2,  11,   1,0.99900, -42.0163,1.10000,0.90000,1.10000,0.90000
  2069,'NODE_2069   ', 161.0000,1,   2,  11,   1,1.02000, -69.1168,1.10000,0.90000,1.10000,0.90000
  2070,'NODE_2070   ', 161.0000,1,   2,  11,   1,1.00108, -41.5981,1.10000,0.90000,1.10000,0.90000
  2071,'NODE_2071   ',  18.0000,2,   2,  11,   1,1.00000, -37.9197,1.10000,0.90000,1.10000,0.90000
  2072,'NODE_2072   ', 161.0000,1,   2,  11,   1,1.01488, -67.2406,1.10000,0.90000,1.10000,0.90000
  2073,'NODE_2073   ', 161.0000,1,   2,  10,   1,1.01551, -25.1088,1.10000,0.90000,1.10000,0.90000
  2074,'NODE_2074   ', 115.0000,1,   2,  10,   1,1.00585, -23.2368,1.10000,0.90000,1.10000,0.90000
  2075,'NODE_2075   ', 115.0000,1,   2,  10,   1,1.00585, -23.2368,1.10000,0.90000,1.10000,0.90000
  2076,'NODE_2076   ',  24.0000,2,   2,  10,   1,1.02078, -24.2021,1.10000,0.90000,1.10000,0.90000
  2077,'NODE_2077   ', 161.0000,1,   2,  11,   1,1.01790, -61.1977,1.10000,0.90000,1.10000,0.90000
  2078,'NODE_2078   ',  13.8000,2,   2,  11,   1,1.02000, -57.8750,1.10000,0.90000,1.10000,0.90000
  2079,'NODE_2079   ', 161.0000,1,   2,  10,   1,1.02230, -34.6267,1.10000,0.90000,1.10000,0.90000
  2080,'NODE_2080   ', 161.0000,1,   2,  11,   1,0.99462, -57.4992,1.10000,0.90000,1.10000,0.90000
  2081,'NODE_2081   ', 161.0000,1,   2,  11,   1,1.00094, -65.1077,1.10000,0.90000,1.10000,0.90000
  2082,'NODE_2082   ', 161.0000,1,   2,  11,   1,1.00287, -44.8266,1.10000,0.90000,1.10000,0.90000
  2083,'NODE_2083   ',  20.0000,2,   2,  11,   1,1.01759, -43.2471,1.10000,0.90000,1.10000,0.90000
  2084,'NODE_2084   ',  20.0000,2,   2,  11,   1,1.00287, -44.8266,1.10000,0.90000,1.10000,0.90000
  2085,'NODE_2085   ',  20.0000,2,   2,  11,   1,1.00287, -44.8266,1.10000,0.90000,1.10000,0.90000
  2086,'NODE_2086   ', 161.0000,1,   2,  11,   1,0.99245, -59.4745,1.10000,0.90000,1.10000,0.90000
  2087,'NODE_2087   ', 161.0000,1,   2,  10,   1,1.01738, -27.4726,1.10000,0.90000,1.10000,0.90000
  2088,'NODE_2088   ', 161.0000,1,   2,  11,   1,1.00007, -41.7164,1.10000,0.90000,1.10000,0.90000
  2089,'NODE_2089   ',  24.0000,2,   2,  11,   1,1.00000, -38.1135,1.10000,0.90000,1.10000,0.90000
  2090,'NODE_2090   ', 161.0000,1,   2,  11,   1,1.00252, -61.0333,1.10000,0.90000,1.10000,0.90000
  2091,'NODE_2091   ', 161.0000,1,   2,  10,   1,1.01628, -33.9785,1.10000,0.90000,1.10000,0.90000
  2092,'NODE_2092   ', 161.0000,1,   2,  11,   1,1.00542, -66.5685,1.10000,0.90000,1.10000,0.90000
  2093,'NODE_2093   ', 161.0000,1,   2,  10,   1,1.02727, -30.6214,1.10000,0.90000,1.10000,0.90000
  2094,'NODE_2094   ',  13.8000,2,   2,  10,   1,1.02727, -30.6214,1.10000,0.90000,1.10000,0.90000
  2095,'NODE_2095   ',  13.8000,2,   2,  10,   1,1.02727, -30.6214,1.10000,0.90000,1.10000,0.90000
  2096,'NODE_2096   ', 500.0000,1,   2,  10,   1,1.02000, -27.8432,1.10000,0.90000,1.10000,0.90000
  2097,'NODE_2097   ', 230.0000,1,   2,  10,   1,1.01927, -27.2823,1.10000,0.90000,1.10000,0.90000
  2098,'NODE_2098   ', 161.0000,1,   2,  10,   1,1.02565, -30.4265,1.10000,0.90000,1.10000,0.90000
  2099,'NODE_2099   ',  18.0000,2,   2,  10,   1,1.02000, -27.6995,1.10000,0.90000,1.10000,0.90000
  2100,'NODE_2100   ',  18.0000,2,   2,  10,   1,1.02000, -25.2187,1.10000,0.90000,1.10000,0.90000
  2101,'NODE_2101   ', 500.0000,1,   2,  11,   1,1.01054, -62.6733,1.10000,0.90000,1.10000,0.90000
  2102,'NODE_2102   ', 161.0000,1,   2,  11,   1,1.01059, -64.1209,1.10000,0.90000,1.10000,0.90000
  2103,'NODE_2103   ',  20.0000,2,   2,  11,   1,1.01054, -62.6733,1.10000,0.90000,1.10000,0.90000
  2104,'NODE_2104   ',  20.0000,2,   2,  11,   1,1.01054, -62.6733,1.10000,0.90000,1.10000,0.90000
  2105,'NODE_2105   ',  20.0000,2,   2,  11,   1,1.01054, -62.6733,1.10000,0.90000,1.10000,0.90000
  2106,'NODE_2106   ', 161.0000,1,   2,  11,   1,0.98913, -66.1980,1.10000,0.90000,1.10000,0.90000
  2107,'NODE_2107   ', 161.0000,1,   2,  11,   1,1.00515, -64.9929,1.10000,0.90000,1.10000,0.90000
  2108,'NODE_2108   ', 161.0000,1,   2,  10,   1,0.99910, -43.6911,1.10000,0.90000,1.10000,0.90000
  2109,'NODE_2109   ', 161.0000,1,   2,  11,   1,1.00661, -46.3573,1.10000,0.90000,1.10000,0.90000
  2110,'NODE_2110   ', 161.0000,1,   2,  11,   1,1.02000, -62.2696,1.10000,0.90000,1.10000,0.90000
  2111,'NODE_2111   ', 161.0000,1,   2,  11,   1,0.99461, -48.9901,1.10000,0.90000,1.10000,0.90000
  2112,'NODE_2112   ', 161.0000,1,   2,  11,   1,0.99166, -49.3794,1.10000,0.90000,1.10000,0.90000
  2113,'NODE_2113   ', 500.0000,1,   2,  11,   1,1.01378, -56.2331,1.10000,0.90000,1.10000,0.90000
  2114,'NODE_2114   ', 161.0000,1,   2,  11,   1,1.01137, -57.5201,1.10000,0.90000,1.10000,0.90000
  2115,'NODE_2115   ',  13.8000,2,   2,  11,   1,1.00489, -52.2396,1.10000,0.90000,1.10000,0.90000
  2116,'NODE_2116   ',  13.8000,2,   2,  11,   1,1.00954, -54.1640,1.10000,0.90000,1.10000,0.90000
  2117,'NODE_2117   ',  13.8000,2,   2,  11,   1,1.00215, -51.6003,1.10000,0.90000,1.10000,0.90000
  2118,'NODE_2118   ',  13.8000,2,   2,  11,   1,1.00078, -51.0924,1.10000,0.90000,1.10000,0.90000
  2119,'NODE_2119   ',  13.8000,2,   2,  11,   1,1.00846, -53.7115,1.10000,0.90000,1.10000,0.90000
  2120,'NODE_2120   ',  13.8000,2,   2,  11,   1,1.01000, -51.3443,1.10000,0.90000,1.10000,0.90000
  2121,'NODE_2121   ', 161.0000,1,   2,  11,   1,1.00612, -59.9413,1.10000,0.90000,1.10000,0.90000
  2122,'NODE_2122   ', 161.0000,1,   2,  11,   1,0.99630, -61.1430,1.10000,0.90000,1.10000,0.90000
  2123,'NODE_2123   ', 161.0000,2,   2,  10,   1,1.02854, -27.0294,1.10000,0.90000,1.10000,0.90000
  2124,'NODE_2124   ', 161.0000,1,   2,  11,   1,0.98777, -67.2733,1.10000,0.90000,1.10000,0.90000
  2125,'NODE_2125   ', 161.0000,1,   2,  11,   1,0.99329, -67.3377,1.10000,0.90000,1.10000,0.90000
  2126,'NODE_2126   ', 161.0000,1,   2,  11,   1,1.00687, -67.0048,1.10000,0.90000,1.10000,0.90000
  2127,'NODE_2127   ', 500.0000,2,   2,  10,   1,1.04000, -33.9676,1.10000,0.90000,1.10000,0.90000
  2128,'NODE_2128   ', 161.0000,1,   2,  10,   1,1.03006, -32.4777,1.10000,0.90000,1.10000,0.90000
  2129,'NODE_2129   ', 161.0000,1,   2,  11,   1,0.99220, -66.1149,1.10000,0.90000,1.10000,0.90000
  2130,'NODE_2130   ', 161.0000,1,   2,  10,   1,1.00073, -42.3015,1.10000,0.90000,1.10000,0.90000
  2131,'NODE_2131   ', 115.0000,1,   2,  10,   1,0.99517, -39.7128,1.10000,0.90000,1.10000,0.90000
  2132,'NODE_2132   ', 115.0000,1,   2,  10,   1,1.01110, -41.4520,1.10000,0.90000,1.10000,0.90000
  2133,'NODE_2133   ', 161.0000,1,   2,  11,   1,1.01290, -60.5227,1.10000,0.90000,1.10000,0.90000
  3001,'NODE_3001   ', 230.0000,1,   3,  28,   1,1.00451, -56.0559,1.10000,0.90000,1.10000,0.90000
  3002,'NODE_3002   ', 115.0000,1,   3,  28,   1,0.99254, -58.5374,1.10000,0.90000,1.10000,0.90000
  3003,'NODE_3003   ', 115.0000,1,   3,  27,   1,1.01393, -18.2462,1.10000,0.90000,1.10000,0.90000
  3004,'NODE_3004   ',  18.0000,2,   3,  27,   1,1.00902, -16.6444,1.10000,0.90000,1.10000,0.90000
  3005,'NODE_3005   ', 115.0000,1,   3,  28,   1,1.01056, -58.5215,1.10000,0.90000,1.10000,0.90000
  3006,'NODE_3006   ', 115.0000,1,   3,  27,   1,0.99984, -26.8779,1.10000,0.90000,1.10000,0.90000
  3007,'NODE_3007   ', 115.0000,1,   3,  27,   1,1.01233, -24.7249,1.10000,0.90000,1.10000,0.90000
  3008,'NODE_3008   ', 115.0000,1,   3,  27,   1,0.99101, -37.1838,1.10000,0.90000,1.10000,0.90000
  3009,'NODE_3009   ', 115.0000,1,   3,  28,   1,1.01111, -31.2520,1.10000,0.90000,1.10000,0.90000
  3010,'NODE_3010   ', 115.0000,1,   3,  28,   1,0.99705, -57.5249,1.10000,0.90000,1.10000,0.90000
  3011,'NODE_3011   ', 115.0000,1,   3,  28,   1,1.00690, -61.4941,1.10000,0.90000,1.10000,0.90000
  3012,'NODE_3012   ', 115.0000,1,   3,  28,   1,1.00822, -61.0891,1.10000,0.90000,1.10000,0.90000
  3013,'NODE_3013   ', 115.0000,1,   3,  27,   1,1.01579, -28.5890,1.10000,0.90000,1.10000,0.90000
  3014,'NODE_3014   ', 115.0000,1,   3,  28,   1,1.01396, -53.5877,1.10000,0.90000,1.10000,0.90000
  3015,'NODE_3015   ', 115.0000,1,   3,  27,   1,1.01115, -17.0086,1.10000,0.90000,1.10000,0.90000
  3016,'NODE_3016   ', 115.0000,1,   3,  27,   1,1.00913, -21.9847,1.10000,0.90000,1.10000,0.90000
  3017,'NODE_3017   ',  18.0000,2,   3,  27,   1,1.01000, -16.7808,1.10000,0.90000,1.10000,0.90000
  3018,'NODE_3018   ', 230.0000,1,   3,  27,   1,1.02294, -29.1560,1.10000,0.90000,1.10000,0.90000
  3019,'NODE_3019   ', 115.0000,1,   3,  27,   1,1.02000, -30.7775,1.10000,0.90000,1.10000,0.90000
  3020,'NODE_3020   ',  13.8000,2,   3,  27,   1,1.03000, -25.0143,1.10000,0.90000,1.10000,0.90000
  3021,'NODE_3021   ', 115.0000,1,   3,  27,   1,0.99923, -35.7411,1.10000,0.90000,1.10000,0.90000
  3022,'NODE_3022   ', 115.0000,1,   3,  27,   1,0.99599, -18.1212,1.10000,0.90000,1.10000,0.90000
  3023,'NODE_3023   ', 115.0000,1,   3,  27,   1,1.02000, -26.9869,1.10000,0.90000,1.10000,0.90000
  3024,'NODE_3024   ', 115.0000,1,   3,  28,   1,1.01567, -31.2227,1.10000,0.90000,1.10000,0.90000
  3025,'NODE_3025   ', 115.0000,1,   3,  28,   1,0.99344, -45.6290,1.10000,0.90000,1.10000,0.90000
  3026,'NODE_3026   ', 230.0000,1,   3,  27,   1,1.02403, -36.8529,1.10000,0.90000,1.10000,0.90000
  3027,'NODE_3027   ', 115.0000,1,   3,  27,   1,1.01697, -37.4349,1.10000,0.90000,1.10000,0.90000
  3028,'NODE_3028   ',  18.0000,2,   3,  27,   1,1.03693, -34.2504,1.10000,0.90000,1.10000,0.90000
  3029,'NODE_3029   ', 115.0000,1,   3,  28,   1,1.02209, -53.8409,1.10000,0.90000,1.10000,0.90000
  3030,'NODE_3030   ', 115.0000,1,   3,  27,   1,1.00817, -40.1886,1.10000,0.90000,1.10000,0.90000
  3031,'NODE_3031   ', 115.0000,1,   3,  27,   1,0.99719, -26.2544,1.10000,0.90000,1.10000,0.90000
  3032,'NODE_3032   ', 115.0000,1,   3,  27,   1,0.99991, -27.1454,1.10000,0.90000,1.10000,0.90000
  3033,'NODE_3033   ', 115.0000,1,   3,  27,   1,1.00723, -15.0532,1.10000,0.90000,1.10000,0.90000
  3034,'NODE_3034   ',  22.0000,2,   3,  27,   1,1.03000,  -5.7748,1.10000,0.90000,1.10000,0.90000
  3035,'NODE_3035   ', 115.0000,1,   3,  28,   1,0.99598, -44.7399,1.10000,0.90000,1.10000,0.90000
  3036,'NODE_3036   ', 115.0000,1,   3,  28,   1,0.99288, -41.9046,1.10000,0.90000,1.10000,0.90000
  3037,'NODE_3037   ', 230.0000,1,   3,  27,   1,1.02285, -25.5309,1.10000,0.90000,1.10000,0.90000
  3038,'NODE_3038   ', 115.0000,1,   3,  27,   1,1.00388, -20.1210,1.10000,0.90000,1.10000,0.90000
  3039,'NODE_3039   ',  13.8000,2,   3,  27,   1,1.03581, -22.9322,1.10000,0.90000,1.10000,0.90000
  3040,'NODE_3040   ', 115.0000,1,   3,  27,   1,0.99012, -34.4655,1.10000,0.90000,1.10000,0.90000
  3041,'NODE_3041   ', 230.0000,1,   3,  27,   1,1.01617, -29.2954,1.10000,0.90000,1.10000,0.90000
  3042,'NODE_3042   ', 115.0000,1,   3,  27,   1,1.00223, -18.8435,1.10000,0.90000,1.10000,0.90000
  3043,'NODE_3043   ',  13.8000,2,   3,  27,   1,1.01617, -29.2954,1.10000,0.90000,1.10000,0.90000
  3044,'NODE_3044   ',  13.8000,2,   3,  27,   1,1.01617, -29.2954,1.10000,0.90000,1.10000,0.90000
  3045,'NODE_3045   ',  13.8000,2,   3,  27,   1,1.01617, -29.2954,1.10000,0.90000,1.10000,0.90000
  3046,'NODE_3046   ', 230.0000,1,   3,  27,   1,1.01238, -34.7556,1.10000,0.90000,1.10000,0.90000
  3047,'NODE_3047   ', 115.0000,1,   3,  27,   1,1.02000, -20.5282,1.10000,0.90000,1.10000,0.90000
  3048,'NODE_3048   ', 500.0000,2,   3,  27,   1,1.01800, -41.6671,1.10000,0.90000,1.10000,0.90000
  3049,'NODE_3049   ', 115.0000,1,   3,  27,   1,1.00034, -30.0310,1.10000,0.90000,1.10000,0.90000
  3050,'NODE_3050   ', 230.0000,1,   3,  28,   1,1.01376, -34.0987,1.10000,0.90000,1.10000,0.90000
  3051,'NODE_3051   ', 115.0000,1,   3,  28,   1,0.99532, -36.0158,1.10000,0.90000,1.10000,0.90000
  3052,'NODE_3052   ', 115.0000,1,   3,  28,   1,0.99753, -58.9534,1.10000,0.90000,1.10000,0.90000
  3053,'NODE_3053   ', 230.0000,1,   3,  27,   1,1.02599, -27.2085,1.10000,0.90000,1.10000,0.90000
  3054,'NODE_3054   ', 115.0000,1,   3,  27,   1,1.00580, -26.7226,1.10000,0.90000,1.10000,0.90000
  3055,'NODE_3055   ',  13.8000,2,   3,  27,   1,1.04000, -24.3179,1.10000,0.90000,1.10000,0.90000
  3056,'NODE_3056   ',  13.8000,2,   3,  27,   1,1.04000, -21.7272,1.10000,0.90000,1.10000,0.90000
  3057,'NODE_3057   ',  13.8000,2,   3,  27,   1,1.04000, -21.8948,1.10000,0.90000,1.10000,0.90000
  3058,'NODE_3058   ', 230.0000,1,   3,  27,   1,1.02897, -24.0156,1.10000,0.90000,1.10000,0.90000
  3059,'NODE_3059   ', 115.0000,1,   3,  27,   1,1.00784, -17.3267,1.10000,0.90000,1.10000,0.90000
  3060,'NODE_3060   ',  18.0000,2,   3,  27,   1,1.04000, -16.4291,1.10000,0.90000,1.10000,0.90000
  3061,'NODE_3061   ',  18.0000,2,   3,  27,   1,1.04000, -18.6064,1.10000,0.90000,1.10000,0.90000
  3062,'NODE_3062   ',  18.0000,2,   3,  27,   1,1.04000, -21.2959,1.10000,0.90000,1.10000,0.90000