0,   100.00, 33, 1, 1, 50.00     / PSS(R)E 33 RAW created by rawd33  WED, APR 03 2024  15:07
DACF (03-04-2024 15:07) HORIZON: 20240404 00H DEM: 24782.75
HID:7637MW,TERM:7291MW,EOL:6382MW,FV:0MW,OK
  1000,'BAAA        ', 132.0000,2,   1,  10,   1,1.00578,  37.4924,1.10000,0.90000,1.10000,0.90000
  1001,'BAAB        ', 132.0000,2,   1,   3,   1,1.03523,  34.1274,1.10000,0.90000,1.10000,0.90000
  1003,'BAAD        ', 132.0000,2,   1,   2,   1,1.02425,  39.7773,1.10000,0.90000,1.10000,0.90000
  1005,'BAAF        ', 132.0000,1,   1,   3,   1,1.03354,  27.3542,1.10000,0.90000,1.10000,0.90000
  1006,'BAAG        ', 132.0000,2,   1,   2,   1,1.02357,  39.2161,1.10000,0.90000,1.10000,0.90000
  1007,'BAAH        ', 132.0000,1,   1,  10,   1,1.02085,  37.5613,1.10000,0.90000,1.10000,0.90000
  1009,'BAAJ        ', 132.0000,2,   1,   2,   1,1.02833,  39.5830,1.10000,0.90000,1.10000,0.90000
  1010,'BABA        ', 132.0000,2,   1,   3,   1,1.03354,  27.3542,1.10000,0.90000,1.10000,0.90000
  1011,'BABB        ', 132.0000,1,   1,  10,   1,1.01427,  29.5531,1.10000,0.90000,1.10000,0.90000
  1012,'BABC        ', 132.0000,2,   1,   2,   1,1.03261,  44.3647,1.10000,0.90000,1.10000,0.90000
  1013,'BABD        ', 132.0000,2,   1,   1,   1,1.02494,  46.4365,1.10000,0.90000,1.10000,0.90000
  1014,'BABE        ', 132.0000,2,   1,   3,   1,1.03507,  26.6157,1.10000,0.90000,1.10000,0.90000
  1018,'BABI        ', 132.0000,1,   1,   3,   1,1.03871,  23.8494,1.10000,0.90000,1.10000,0.90000
  1021,'BACB        ', 132.0000,2,   1,   3,   1,1.03561,  24.3870,1.10000,0.90000,1.10000,0.90000
  1022,'BACC        ', 132.0000,2,   1,   2,   1,1.04209,  44.4040,1.10000,0.90000,1.10000,0.90000
  1025,'BACF        ', 132.0000,2,   1,   1,   1,1.05105,  45.2019,1.10000,0.90000,1.10000,0.90000
  1027,'BACH        ', 132.0000,2,   1,   2,   1,1.03931,  44.9923,1.10000,0.90000,1.10000,0.90000
  1033,'BADD        ', 132.0000,1,   1,   2,   1,1.04149,  44.6210,1.10000,0.90000,1.10000,0.90000
  1035,'BADF        ', 132.0000,1,   1,  10,   1,0.99751,  35.6405,1.10000,0.90000,1.10000,0.90000
  1040,'BAEA        ', 132.0000,2,   1,   3,   1,1.02529,  27.1724,1.10000,0.90000,1.10000,0.90000
  1042,'BAEC        ', 132.0000,2,   1,  10,   1,1.02050,  37.2812,1.10000,0.90000,1.10000,0.90000
  1043,'BAED        ', 132.0000,2,   1,   3,   1,1.04315,  34.5400,1.10000,0.90000,1.10000,0.90000
  1048,'BAEI        ', 132.0000,2,   1,  10,   1,1.01232,  29.5921,1.10000,0.90000,1.10000,0.90000
  1051,'BAFB        ', 132.0000,1,   1,   1,   1,1.03965,  41.9224,1.10000,0.90000,1.10000,0.90000
  1052,'BAFC        ', 132.0000,2,   1,  10,   1,1.01493,  29.1111,1.10000,0.90000,1.10000,0.90000
  1055,'BAFF        ', 132.0000,2,   1,   1,   1,1.03683,  42.2636,1.10000,0.90000,1.10000,0.90000
  1057,'BAFH        ', 132.0000,2,   1,   2,   1,1.03110,  43.1366,1.10000,0.90000,1.10000,0.90000
  1058,'BAFI        ', 132.0000,2,   1,  10,   1,1.01495,  29.1119,1.10000,0.90000,1.10000,0.90000
  1060,'BAGA        ', 132.0000,4,   1,  10,   1,1.00000,   0.0000,1.10000,0.90000,1.10000,0.90000
  1061,'BAGB        ', 132.0000,2,   1,  10,   1,1.00842,  29.2265,1.10000,0.90000,1.10000,0.90000
  1064,'BAGE        ', 132.0000,1,   1,   3,   1,1.03029,  31.9702,1.10000,0.90000,1.10000,0.90000
  1065,'BAGF        ', 132.0000,2,   1,   1,   1,1.02118,  40.1865,1.10000,0.90000,1.10000,0.90000
  1069,'BAGJ        ', 132.0000,1,   1,  10,   1,1.01629,  29.1492,1.10000,0.90000,1.10000,0.90000
  1072,'BAHC        ', 132.0000,1,   1,   3,   1,1.03193,  27.6970,1.10000,0.90000,1.10000,0.90000
  1076,'BAHG        ', 132.0000,2,   1,  10,   1,1.01256,  29.0923,1.10000,0.90000,1.10000,0.90000
  1078,'BAHI        ', 132.0000,2,   1,   1,   1,1.03637,  42.6911,1.10000,0.90000,1.10000,0.90000
  1079,'BAHJ        ', 132.0000,1,   1,   1,   1,1.02375,  41.0772,1.10000,0.90000,1.10000,0.90000
  1080,'BAIA        ', 132.0000,2,   1,   1,   1,1.03103,  46.7464,1.10000,0.90000,1.10000,0.90000
  1084,'BAIE        ', 132.0000,2,   1,   4,   1,0.97093,  27.0537,1.10000,0.90000,1.10000,0.90000
  1086,'BAIG        ', 132.0000,2,   1,   1,   1,1.04401,  44.5303,1.10000,0.90000,1.10000,0.90000
  1087,'BAIH        ', 132.0000,2,   1,   1,   1,1.05551,  42.7948,1.10000,0.90000,1.10000,0.90000
  1089,'BAIJ        ', 132.0000,2,   1,   1,   1,1.03484,  41.5987,1.10000,0.90000,1.10000,0.90000
  1090,'BAJA        ', 132.0000,2,   1,   3,   1,1.03359,  29.6885,1.10000,0.90000,1.10000,0.90000
  1091,'BAJB        ', 132.0000,2,   1,   1,   1,1.03845,  46.7219,1.10000,0.90000,1.10000,0.90000
  1094,'MONTOUTO    ',  20.0000,2,   1,   2,   1,1.08904,  42.0997,1.10000,0.90000,1.10000,0.90000
  1095,'BAJF        ', 132.0000,1,   1,   1,   1,1.04542,  45.1811,1.10000,0.90000,1.10000,0.90000
  1096,'BAJG        ', 132.0000,2,   1,   1,   1,1.04355,  42.2516,1.10000,0.90000,1.10000,0.90000
  1097,'BAJH        ', 132.0000,1,   1,   2,   1,1.00001,  38.6252,1.10000,0.90000,1.10000,0.90000
  1098,'BAJI        ', 132.0000,2,   1,   3,   1,1.03677,  24.0683,1.10000,0.90000,1.10000,0.90000
  1099,'BAJJ        ', 132.0000,1,   1,   3,   1,1.02687,  31.6937,1.10000,0.90000,1.10000,0.90000
  1105,'BBAF        ', 132.0000,1,   1,   2,   1,1.04336,  45.1373,1.10000,0.90000,1.10000,0.90000
  1106,'BBAG        ', 132.0000,1,   1,   2,   1,1.02564,  39.5380,1.10000,0.90000,1.10000,0.90000
  1107,'BBAH        ', 132.0000,2,   1,   2,   1,1.04474,  44.2646,1.10000,0.90000,1.10000,0.90000
  1111,'BBBB        ', 132.0000,1,   1,   1,   1,1.04964,  42.2624,1.10000,0.90000,1.10000,0.90000
  1114,'BBBE        ', 132.0000,1,   1,   1,   1,1.04963,  42.2648,1.10000,0.90000,1.10000,0.90000
  1115,'BBBF        ', 132.0000,1,   1,   1,   1,1.04298,  42.1948,1.10000,0.90000,1.10000,0.90000
  1117,'BBBH        ', 132.0000,1,   1,   2,   1,0.99917,  38.6774,1.10000,0.90000,1.10000,0.90000
  1120,'BBCA        ', 132.0000,2,   1,   2,   1,1.04475,  45.3979,1.10000,0.90000,1.10000,0.90000
  1123,'BBCD        ', 132.0000,1,   1,   1,   1,1.03380,  40.8558,1.10000,0.90000,1.10000,0.90000
  1126,'BBCG        ', 132.0000,2,   1,  10,   1,1.01737,  37.7368,1.10000,0.90000,1.10000,0.90000
  1129,'BBCJ        ', 132.0000,2,   1,   3,   1,1.01708,  28.2296,1.10000,0.90000,1.10000,0.90000
  1132,'BBDC        ', 132.0000,1,   1,   4,   1,1.01775,  23.4632,1.10000,0.90000,1.10000,0.90000
  1135,'BBDF        ', 132.0000,1,   1,   2,   1,1.04615,  45.5392,1.10000,0.90000,1.10000,0.90000
  1136,'BBDG        ', 132.0000,2,   1,   4,   1,0.97543,  26.9168,1.10000,0.90000,1.10000,0.90000
  1138,'BBDI        ', 132.0000,2,   1,   2,   1,1.03991,  44.2866,1.10000,0.90000,1.10000,0.90000
  1144,'BBEE        ', 132.0000,2,   1,   1,   1,1.03078,  40.0507,1.10000,0.90000,1.10000,0.90000
  1145,'BBEF        ', 132.0000,2,   1,   2,   1,1.02377,  39.2455,1.10000,0.90000,1.10000,0.90000
  1146,'BBEG        ', 132.0000,2,   1,   2,   1,1.00000,  38.3199,1.10000,0.90000,1.10000,0.90000
  1147,'BBEH        ', 132.0000,1,   1,  10,   1,1.00730,  37.5805,1.10000,0.90000,1.10000,0.90000
  1150,'BBFA        ', 132.0000,1,   1,   1,   1,1.03355,  40.0208,1.10000,0.90000,1.10000,0.90000
  1152,'BBFC        ', 132.0000,2,   1,   2,   1,1.02611,  41.0253,1.10000,0.90000,1.10000,0.90000
  1153,'BBFD        ', 132.0000,2,   1,   2,   1,1.04166,  44.5243,1.10000,0.90000,1.10000,0.90000
  1154,'BBFE        ', 132.0000,2,   1,   1,   1,1.00085,  38.8515,1.10000,0.90000,1.10000,0.90000
  1155,'BBFF        ', 132.0000,2,   1,   3,   1,1.01620,  39.2610,1.10000,0.90000,1.10000,0.90000
  1157,'BBFH        ', 132.0000,2,   1,   1,   1,1.03133,  40.3492,1.10000,0.90000,1.10000,0.90000
  1159,'BBFJ        ', 132.0000,2,   1,   3,   1,1.01964,  26.9121,1.10000,0.90000,1.10000,0.90000
  1160,'BBGA        ', 132.0000,2,   1,   1,   1,1.04942,  45.2865,1.10000,0.90000,1.10000,0.90000
  1161,'BBGB        ', 132.0000,1,   1,   3,   1,1.03384,  32.6662,1.10000,0.90000,1.10000,0.90000
  1162,'BBGC        ', 132.0000,1,   1,   3,   1,1.01943,  27.3981,1.10000,0.90000,1.10000,0.90000
  1166,'BBGG        ', 132.0000,2,   1,   3,   1,0.98659,  44.4347,1.10000,0.90000,1.10000,0.90000
  1177,'BBHH        ', 132.0000,1,   1,   3,   1,1.02524,  25.0876,1.10000,0.90000,1.10000,0.90000
  1180,'BBIA        ', 132.0000,2,   1,   3,   1,1.04109,  22.7318,1.10000,0.90000,1.10000,0.90000
  1183,'BBID        ', 132.0000,2,   1,   1,   1,1.04844,  42.5033,1.10000,0.90000,1.10000,0.90000
  1189,'BBIJ        ', 132.0000,2,   1,   3,   1,1.02779,  25.5160,1.10000,0.90000,1.10000,0.90000
  1192,'BBJC        ', 132.0000,2,   1,   1,   1,1.04687,  45.2698,1.10000,0.90000,1.10000,0.90000
  1195,'BBJF        ', 132.0000,1,   1,   2,   1,0.99661,  38.6814,1.10000,0.90000,1.10000,0.90000
  1197,'BBJH        ', 132.0000,2,   1,   2,   1,0.99636,  38.6522,1.10000,0.90000,1.10000,0.90000
  1198,'BBJI        ', 132.0000,2,   1,   2,   1,1.02416,  39.3570,1.10000,0.90000,1.10000,0.90000
  1204,'BCAE        ', 132.0000,2,   1,   3,   1,1.02174,  27.9760,1.10000,0.90000,1.10000,0.90000
  1208,'BCAI        ', 132.0000,2,   1,   4,   1,1.02906,  26.2674,1.10000,0.90000,1.10000,0.90000
  1210,'BCBA        ', 132.0000,2,   1,  10,   1,1.01268,  29.6454,1.10000,0.90000,1.10000,0.90000
  1212,'BCBC        ', 132.0000,2,   1,   3,   1,1.03748,  33.9088,1.10000,0.90000,1.10000,0.90000
  1220,'BCCA        ',  45.0000,2,   1,  10,   1,0.96582,  24.2708,1.10000,0.90000,1.10000,0.90000
  1221,'BCCB        ',  45.0000,2,   1,  10,   1,0.96563,  24.2869,1.10000,0.90000,1.10000,0.90000
  1227,'P.E.SIL     ',  20.0000,2,   1,   2,   1,1.03176,  47.0733,1.10000,0.90000,1.10000,0.90000
  1228,'P.E.SIL     ',  20.0000,2,   1,   2,   1,1.03337,  45.4499,1.10000,0.90000,1.10000,0.90000
  1229,'P.G.RODR    ',  17.0000,2,   1,   1,   1,0.98214,  42.0810,1.10000,0.90000,1.10000,0.90000
  1230,'LADA        ',  33.0000,4,   1,   3,   1,1.00000,   0.0000,1.10000,0.90000,1.10000,0.90000
  1231,'P.G.RODR    ',  17.0000,4,   1,   1,   1,1.00000,   0.0000,1.10000,0.90000,1.10000,0.90000
  1233,'P.G.RODR    ',  17.0000,2,   1,   1,   1,0.98551,  41.4327,1.10000,0.90000,1.10000,0.90000
  1235,'LADA        ',  33.0000,4,   1,   3,   1,1.00000,   0.0000,1.10000,0.90000,1.10000,0.90000
  1237,'BCDH        ',  45.0000,2,   1,  10,   1,0.99521,  40.5683,1.10000,0.90000,1.10000,0.90000
  1240,'MATAPORQ    ',  12.0000,4,   1,   4,   1,1.00000,   0.0000,1.10000,0.90000,1.10000,0.90000
  1244,'SABON       ',  19.0000,4,   1,   1,   1,1.00000,   0.0000,1.10000,0.90000,1.10000,0.90000
  1258,'SOTORIBE    ',  21.0000,2,   1,   3,   1,0.98253,  33.5519,1.10000,0.90000,1.10000,0.90000
  1275,'SOTORIBE    ',  20.0000,4,   1,   3,   1,1.00000,   0.0000,1.10000,0.90000,1.10000,0.90000
  1278,'BCHI        ',  66.0000,2,   1,   1,   1,1.08138,  44.5970,1.10000,0.90000,1.10000,0.90000
  1290,'VELLE       ',  20.0000,2,   1,   2,   1,1.04370,  39.0803,1.10000,0.90000,1.10000,0.90000
  1291,'VELLE       ',  20.0000,1,   1,   2,   1,1.03737,  40.1168,1.10000,0.90000,1.10000,0.90000
  1294,'BCJE        ', 132.0000,2,   1,   1,   1,1.04880,  46.1638,1.10000,0.90000,1.10000,0.90000
  1297,'BCJH        ', 132.0000,2,   1,   3,   1,0.98275,  43.3292,1.10000,0.90000,1.10000,0.90000
  1311,'BDBB        ', 132.0000,1,   1,   3,   1,0.96836,  19.0231,1.10000,0.90000,1.10000,0.90000
  1386,'MORALUNA    ',   6.6000,2,   1,  10,   1,0.96069,  31.6623,1.10000,0.90000,1.10000,0.90000
  1396,'BDJG        ', 132.0000,2,   1,   3,   1,0.97859,  41.9305,1.10000,0.90000,1.10000,0.90000
  1398,'BDJI        ', 132.0000,2,   1,   3,   1,0.98297,  43.3748,1.10000,0.90000,1.10000,0.90000
  1399,'BDJJ        ', 132.0000,2,   1,   3,   1,0.98438,  43.7061,1.10000,0.90000,1.10000,0.90000
  1417,'BEBH        ', 132.0000,1,   1,   3,   1,1.02662,  28.3409,1.10000,0.90000,1.10000,0.90000
  1434,'SOTORIBE    ',  21.0000,4,   1,   3,   1,1.00000,   0.0000,1.10000,0.90000,1.10000,0.90000
  1506,'BFAG        ', 132.0000,2,   1,  10,   1,1.04251,  31.1472,1.10000,0.90000,1.10000,0.90000
  1510,'BFBA        ', 132.0000,2,   1,   1,   1,1.03979,  47.4112,1.10000,0.90000,1.10000,0.90000
  1513,'BFBD        ', 132.0000,2,   1,   3,   1,1.01629,  39.2777,1.10000,0.90000,1.10000,0.90000
  1514,'BFBE        ', 132.0000,2,   1,   3,   1,1.03573,  33.2867,1.10000,0.90000,1.10000,0.90000
  1516,'BFBG        ', 132.0000,2,   1,   3,   1,1.01597,  39.1717,1.10000,0.90000,1.10000,0.90000
  1518,'BFBI        ', 132.0000,1,   1,   2,   1,1.00805,  37.8762,1.10000,0.90000,1.10000,0.90000
  1519,'BFBJ        ', 132.0000,1,   1,   3,   1,1.01858,  39.6942,1.10000,0.90000,1.10000,0.90000
  1527,'BFCH        ', 132.0000,2,   1,  10,   1,1.01246,  29.0863,1.10000,0.90000,1.10000,0.90000
  1530,'BFDA        ',  66.0000,4,   1,   1,   1,1.00000,   0.0000,1.10000,0.90000,1.10000,0.90000
  1533,'BFDD        ', 132.0000,2,   1,   3,   1,1.03116,  27.5991,1.10000,0.90000,1.10000,0.90000
  1535,'BFDF        ', 132.0000,4,   1,  10,   1,1.00000,   0.0000,1.10000,0.90000,1.10000,0.90000
  1542,'BFEC        ', 132.0000,1,   1,   1,   1,1.04093,  34.0986,1.10000,0.90000,1.10000,0.90000
  1543,'BFED        ', 132.0000,2,   1,   1,   1,1.04792,  45.3318,1.10000,0.90000,1.10000,0.90000
  1545,'BFEF        ',  66.0000,2,   1,   2,   1,1.06650,  42.5764,1.10000,0.90000,1.10000,0.90000
  1546,'BFEG        ',  66.0000,2,   1,   1,   1,1.03078,  40.4170,1.10000,0.90000,1.10000,0.90000
  1548,'BFEI        ',  66.0000,1,   1,   1,   1,1.00818,  48.1850,1.10000,0.90000,1.10000,0.90000
  1549,'LAGOA       ',  30.0000,2,   1,   1,   1,1.02472,  47.2213,1.10000,0.90000,1.10000,0.90000
  1551,'BFFB        ',  66.0000,2,   1,   1,   1,1.01296,  49.6276,1.10000,0.90000,1.10000,0.90000
  1552,'BFFC        ', 132.0000,2,   1,   1,   1,0.99842,  41.0978,1.10000,0.90000,1.10000,0.90000
  1553,'BFFD        ',  66.0000,1,   1,   1,   1,0.98701,  47.3985,1.10000,0.90000,1.10000,0.90000
  1556,'BFFG        ',  66.0000,2,   1,   1,   1,0.99274,  49.3516,1.10000,0.90000,1.10000,0.90000
  1557,'BFFH        ',  66.0000,2,   1,   1,   1,1.03091,  40.4784,1.10000,0.90000,1.10000,0.90000
  1558,'BFFI        ',  55.0000,1,   1,   4,   1,1.03232,  21.1122,1.10000,0.90000,1.10000,0.90000
  1560,'BFGA        ',  66.0000,1,   1,   1,   1,1.03575,  40.4517,1.10000,0.90000,1.10000,0.90000
  1572,'BFHC        ',  55.0000,2,   1,   4,   1,1.02030,  21.3644,1.10000,0.90000,1.10000,0.90000
  1573,'BFHD        ', 132.0000,2,   1,  10,   1,1.01141,  29.3127,1.10000,0.90000,1.10000,0.90000
  1575,'BFHF        ', 132.0000,2,   1,   1,   1,0.99733,  40.8180,1.10000,0.90000,1.10000,0.90000
  1576,'BFHG        ', 132.0000,2,   1,   1,   1,1.03731,  42.0258,1.10000,0.90000,1.10000,0.90000
  1580,'BFIA        ',  66.0000,2,   1,   1,   1,1.02532,  38.2582,1.10000,0.90000,1.10000,0.90000
  1585,'BFIF        ',  66.0000,2,   1,   1,   1,1.05678,  41.4281,1.10000,0.90000,1.10000,0.90000
  1601,'CARRIO      ',  22.0000,4,   1,   3,   1,1.00000,   0.0000,1.10000,0.90000,1.10000,0.90000
  1602,'CARRIO      ',  19.0000,2,   1,   3,   1,0.94158,  27.4064,1.10000,0.90000,1.10000,0.90000
  1606,'AGUAYO      ',  12.0000,2,   1,   4,   1,0.95070,  27.0811,1.10000,0.90000,1.10000,0.90000
  1607,'AGUAYO      ',  12.0000,2,   1,   4,   1,0.94897,  25.3080,1.10000,0.90000,1.10000,0.90000
  1608,'AGUAYO      ',  12.0000,2,   1,   4,   1,0.95043,  27.1412,1.10000,0.90000,1.10000,0.90000
  1609,'AGUAYO      ',  12.0000,2,   1,   4,   1,0.95104,  27.1379,1.10000,0.90000,1.10000,0.90000
  1615,'ALBARELL    ',  11.0000,2,   1,   2,   1,1.00474,  45.1828,1.10000,0.90000,1.10000,0.90000
  1621,'ARBON       ',  11.0000,4,   1,   3,   1,1.00000,   0.0000,1.10000,0.90000,1.10000,0.90000
  1622,'ARBON       ',  11.0000,4,   1,   3,   1,1.00000,   0.0000,1.10000,0.90000,1.10000,0.90000
  1630,'BARCENA     ',  11.0000,4,   1,  10,   1,1.00000,   0.0000,1.10000,0.90000,1.10000,0.90000
  1631,'BARCENA     ',  11.0000,2,   1,  10,   1,0.98060,  42.9413,1.10000,0.90000,1.10000,0.90000
  1638,'BELESAR     ',  11.0000,2,   1,   2,   1,0.95379,  47.5929,1.10000,0.90000,1.10000,0.90000
  1639,'BELESAR     ',  11.0000,2,   1,   2,   1,0.95271,  47.4990,1.10000,0.90000,1.10000,0.90000
  1640,'BELESAR     ',  11.0000,2,   1,   2,   1,0.94726,  52.1479,1.10000,0.90000,1.10000,0.90000
  1646,'CASTRELO    ',  11.0000,2,   1,   2,   1,0.99824,  46.7829,1.10000,0.90000,1.10000,0.90000
  1647,'CASTRELO    ',  11.0000,2,   1,   2,   1,0.99577,  46.9306,1.10000,0.90000,1.10000,0.90000
  1664,'CONCHAS     ',  11.0000,2,   1,   2,   1,1.03535,  48.8365,1.10000,0.90000,1.10000,0.90000
  1670,'CONCHAS     ',   6.6000,2,   1,   2,   1,1.03571,  49.1071,1.10000,0.90000,1.10000,0.90000
  1672,'CONCHAS     ',   6.6000,2,   1,   2,   1,1.03552,  49.1439,1.10000,0.90000,1.10000,0.90000
  1675,'CONSO       ',  15.0000,4,   1,   2,   1,1.00000,   0.0000,1.10000,0.90000,1.10000,0.90000
  1676,'CONSO       ',  15.0000,2,   1,   2,   1,0.93493,  39.3536,1.10000,0.90000,1.10000,0.90000
  1677,'CONSO       ',  15.0000,4,   1,   2,   1,1.00000,   0.0000,1.10000,0.90000,1.10000,0.90000
  1679,'CORNATEL    ',  11.0000,4,   1,  10,   1,1.00000,   0.0000,1.10000,0.90000,1.10000,0.90000
  1680,'CORNATEL    ',  11.0000,2,   1,  10,   1,0.96734,  42.1615,1.10000,0.90000,1.10000,0.90000
  1685,'EUME        ',  11.0000,2,   1,   1,   1,0.97199,  47.7605,1.10000,0.90000,1.10000,0.90000
  1686,'EUME        ',  11.0000,2,   1,   1,   1,0.97127,  47.6646,1.10000,0.90000,1.10000,0.90000
  1688,'FRIEIRA     ',  11.0000,2,   1,   2,   1,0.98363,  48.3754,1.10000,0.90000,1.10000,0.90000
  1689,'FRIEIRA     ',  11.0000,2,   1,   2,   1,0.97967,  48.2263,1.10000,0.90000,1.10000,0.90000
  1699,'FRIEIRA     ',  11.0000,2,   1,   2,   1,0.88423,  47.9512,1.10000,0.90000,1.10000,0.90000
  1700,'LA BARCA    ',  11.0000,4,   1,   3,   1,1.00000,   0.0000,1.10000,0.90000,1.10000,0.90000
  1702,'LA BARCA    ',  11.0000,2,   1,   3,   1,0.89497,  36.2539,1.10000,0.90000,1.10000,0.90000
  1708,'LA LOMBA    ',  24.0000,4,   1,  10,   1,1.00000,   0.0000,1.10000,0.90000,1.10000,0.90000
  1716,'MONTEFUR    ',   6.3000,2,   1,   2,   1,1.01956,  41.0444,1.10000,0.90000,1.10000,0.90000
  1717,'MONTEFUR    ',   6.3000,2,   1,   2,   1,1.02934,  40.8986,1.10000,0.90000,1.10000,0.90000
  1718,'MONTEFUR    ',   6.3000,2,   1,   2,   1,1.01990,  41.0839,1.10000,0.90000,1.10000,0.90000
  1726,'ONDINAS     ',  11.0000,2,   1,  10,   1,0.91075,  41.9113,1.10000,0.90000,1.10000,0.90000
  1727,'ONDINAS     ',  11.0000,2,   1,  10,   1,0.91438,  43.8678,1.10000,0.90000,1.10000,0.90000
  1731,'P.BIBEY     ',  15.0000,2,   1,   2,   1,0.93407,  44.4461,1.10000,0.90000,1.10000,0.90000
  1732,'P.BIBEY     ',  15.0000,4,   1,   2,   1,1.00000,   0.0000,1.10000,0.90000,1.10000,0.90000
  1733,'P.BIBEY     ',  15.0000,2,   1,   2,   1,0.93512,  44.5834,1.10000,0.90000,1.10000,0.90000
  1734,'P.BIBEY     ',  15.0000,2,   1,   2,   1,0.93160,  44.6534,1.10000,0.90000,1.10000,0.90000
  1751,'P.NOVO      ',   6.3000,2,   1,   2,   1,1.01059,  41.2448,1.10000,0.90000,1.10000,0.90000
  1752,'P.NOVO      ',   6.3000,2,   1,   2,   1,1.01025,  41.3275,1.10000,0.90000,1.10000,0.90000
  1753,'P.NOVO      ',   6.3000,2,   1,   2,   1,1.00187,  39.9115,1.10000,0.90000,1.10000,0.90000
  1761,'PEARES      ',  11.0000,2,   1,   2,   1,0.99352,  51.2541,1.10000,0.90000,1.10000,0.90000
  1762,'PEARES      ',  11.0000,2,   1,   2,   1,0.99390,  50.8401,1.10000,0.90000,1.10000,0.90000
  1763,'PEARES      ',  11.0000,2,   1,   2,   1,0.99619,  51.3068,1.10000,0.90000,1.10000,0.90000
  1769,'PENADRAD    ',  11.0000,2,   1,  10,   1,0.91395,  39.6875,1.10000,0.90000,1.10000,0.90000
  1770,'PENADRAD    ',  11.0000,2,   1,  10,   1,0.91597,  39.8848,1.10000,0.90000,1.10000,0.90000
  1773,'PEREDA      ',  10.5000,2,   1,   3,   1,0.98913,  31.2009,1.10000,0.90000,1.10000,0.90000
  1776,'PDEMOURO    ',  11.0000,2,   1,   2,   1,0.91583,  46.8719,1.10000,0.90000,1.10000,0.90000
  1777,'PDEMOURO    ',  11.0000,2,   1,   2,   1,0.91694,  46.7618,1.10000,0.90000,1.10000,0.90000
  1781,'PRADA       ',  11.0000,2,   1,   2,   1,0.93981,  45.5404,1.10000,0.90000,1.10000,0.90000
  1782,'PRADA       ',  11.0000,2,   1,   2,   1,0.94006,  45.4873,1.10000,0.90000,1.10000,0.90000
  1789,'QUERENO     ',  11.0000,2,   1,   2,   1,0.93148,  44.5597,1.10000,0.90000,1.10000,0.90000
  1790,'QUERENO     ',  11.0000,2,   1,   2,   1,0.93380,  44.5329,1.10000,0.90000,1.10000,0.90000
  1794,'REGUEIRO    ',  11.0000,2,   1,   2,   1,0.96647,  46.2568,1.10000,0.90000,1.10000,0.90000
  1795,'REGUEIRO    ',  11.0000,2,   1,   2,   1,0.96585,  46.2932,1.10000,0.90000,1.10000,0.90000
  1796,'REMOLINA    ',  11.0000,4,   1,  10,   1,1.00000,   0.0000,1.10000,0.90000,1.10000,0.90000
  1797,'REMOLINA    ',  11.0000,4,   1,  10,   1,1.00000,   0.0000,1.10000,0.90000,1.10000,0.90000
  1798,'RIBADELA    ',  11.0000,2,   1,  10,   1,0.89685,  42.8556,1.10000,0.90000,1.10000,0.90000
  1802,'S.AGUSTI    ',  11.0000,2,   1,   2,   1,0.94559,  43.5788,1.10000,0.90000,1.10000,0.90000
  1803,'S.AGUSTI    ',  11.0000,2,   1,   2,   1,0.94314,  45.0515,1.10000,0.90000,1.10000,0.90000
  1804,'BIAE        ',  45.0000,2,   1,   2,   1,0.98630,  42.2778,1.10000,0.90000,1.10000,0.90000
  1806,'S.ESTEBA    ',  15.0000,2,   1,   2,   1,0.93488,  47.2679,1.10000,0.90000,1.10000,0.90000
  1807,'S.ESTEBA    ',  15.0000,2,   1,   2,   1,0.93806,  47.2043,1.10000,0.90000,1.10000,0.90000
  1808,'S.ESTEBA    ',  15.0000,2,   1,   2,   1,0.93775,  47.1400,1.10000,0.90000,1.10000,0.90000
  1809,'S.ESTEBA    ',  15.0000,2,   1,   2,   1,0.93331,  47.3475,1.10000,0.90000,1.10000,0.90000
  1810,'S.ESTEBA    ',  15.0000,2,   1,   2,   1,0.94187,  48.3591,1.10000,0.90000,1.10000,0.90000
  1811,'S.MARINA    ',   6.7000,2,   1,  10,   1,0.94909,  44.1095,1.10000,0.90000,1.10000,0.90000
  1812,'S.MARINA    ',   6.7000,2,   1,  10,   1,0.93679,  43.9793,1.10000,0.90000,1.10000,0.90000
  1814,'S.PEDRO     ',  15.0000,2,   1,   2,   1,0.94402,  47.5617,1.10000,0.90000,1.10000,0.90000
  1816,'S.MARINA    ',  11.0000,2,   1,  10,   1,0.93034,  42.6266,1.10000,0.90000,1.10000,0.90000
  1820,'SALASORE    ',  12.6000,2,   1,   2,   1,1.03938,  47.1452,1.10000,0.90000,1.10000,0.90000
  1823,'SALIME      ',  11.0000,4,   1,   3,   1,1.00000,   0.0000,1.10000,0.90000,1.10000,0.90000
  1824,'SALIME      ',  11.0000,4,   1,   3,   1,1.00000,   0.0000,1.10000,0.90000,1.10000,0.90000
  1825,'SALIME      ',  11.0000,2,   1,   3,   1,0.95107,  46.8851,1.10000,0.90000,1.10000,0.90000
  1826,'SALIME      ',  11.0000,2,   1,   3,   1,0.95045,  40.9222,1.10000,0.90000,1.10000,0.90000
  1831,'SANTIAGO    ',  15.0000,4,   1,   2,   1,1.00000,   0.0000,1.10000,0.90000,1.10000,0.90000
  1832,'SANTIAGO    ',  15.0000,4,   1,   2,   1,1.00000,   0.0000,1.10000,0.90000,1.10000,0.90000
  1838,'SOBRADEL    ',  11.0000,2,   1,   2,   1,0.95286,  42.4661,1.10000,0.90000,1.10000,0.90000
  1841,'SOUTELO     ',  15.0000,4,   1,   2,   1,1.00000,   0.0000,1.10000,0.90000,1.10000,0.90000
  1842,'SOUTELO     ',  15.0000,4,   1,   2,   1,1.00000,   0.0000,1.10000,0.90000,1.10000,0.90000
  1855,'VELLE       ',  11.0000,2,   1,   2,   1,0.96756,  46.4260,1.10000,0.90000,1.10000,0.90000
  1860,'VELLE       ',  11.0000,2,   1,   2,   1,0.96694,  46.9487,1.10000,0.90000,1.10000,0.90000
  1875,'BIHF        ',  66.0000,2,   1,   1,   1,1.05825,  48.3538,1.10000,0.90000,1.10000,0.90000
  1900,'GUARDO      ',   1.0000,1,   1,  10,   1,0.96251,  23.6457,1.10000,0.90000,1.10000,0.90000
  1905,'LA LOMBA    ',   1.0000,1,   1,  10,   1,0.98267,  42.8725,1.10000,0.90000,1.10000,0.90000
  1910,'LADA   A    ',   1.0000,1,   1,   3,   1,1.00737,  29.3570,1.10000,0.90000,1.10000,0.90000
  1913,'LADA   B    ',   1.0000,1,   1,   3,   1,1.00714,  29.3422,1.10000,0.90000,1.10000,0.90000
  1915,'MATAPORQ    ',   1.0000,1,   1,   4,   1,0.97161,  23.3222,1.10000,0.90000,1.10000,0.90000
  2006,'CAAG        ', 132.0000,2,   1,   5,   1,1.02968,  14.2912,1.10000,0.90000,1.10000,0.90000
  2007,'CAAH        ', 132.0000,2,   1,  10,   1,1.05597,  29.9724,1.10000,0.90000,1.10000,0.90000
  2009,'CAAJ        ', 132.0000,2,   1,   5,   1,1.03309,  14.8620,1.10000,0.90000,1.10000,0.90000
  2018,'CABI        ', 132.0000,2,   1,   5,   1,1.02336,  13.5619,1.10000,0.90000,1.10000,0.90000
  2024,'CACE        ', 132.0000,1,   1,  10,   1,1.05391,  29.6160,1.10000,0.90000,1.10000,0.90000
  2027,'CACH        ', 132.0000,2,   1,   5,   1,1.03409,  14.7570,1.10000,0.90000,1.10000,0.90000
  2028,'CACI        ', 132.0000,2,   1,  10,   1,0.97754,  27.5747,1.10000,0.90000,1.10000,0.90000
  2029,'CACJ        ', 132.0000,2,   1,  10,   1,1.04543,  25.8472,1.10000,0.90000,1.10000,0.90000
  2037,'CADH        ', 132.0000,2,   1,   5,   1,1.02333,  13.5291,1.10000,0.90000,1.10000,0.90000
  2040,'CAEA        ',  66.0000,1,   1,   6,   1,1.04569,  14.5438,1.10000,0.90000,1.10000,0.90000
  2041,'CAEB        ', 132.0000,2,   1,  10,   1,1.03045,  30.5598,1.10000,0.90000,1.10000,0.90000
  2048,'CAEI        ', 132.0000,2,   1,   5,   1,1.02574,  13.6297,1.10000,0.90000,1.10000,0.90000
  2050,'CAFA        ',  66.0000,1,   1,   6,   1,1.01315,  14.5893,1.10000,0.90000,1.10000,0.90000
  2052,'CAFC        ',  66.0000,1,   1,   6,   1,1.01562,  15.1545,1.10000,0.90000,1.10000,0.90000
  2053,'CAFD        ',  66.0000,2,   1,   6,   1,1.01803,  15.8977,1.10000,0.90000,1.10000,0.90000
  2058,'CAFI        ', 132.0000,2,   1,   5,   1,1.02789,  14.0664,1.10000,0.90000,1.10000,0.90000
  2059,'CAFJ        ',  66.0000,2,   1,   6,   1,1.01019,  13.2313,1.10000,0.90000,1.10000,0.90000
  2060,'CAGA        ', 132.0000,2,   1,   5,   1,1.03537,  14.8204,1.10000,0.90000,1.10000,0.90000
  2063,'CAGD        ',  66.0000,2,   1,  10,   1,1.00909,  25.9088,1.10000,0.90000,1.10000,0.90000
  2064,'CAGE        ', 132.0000,2,   1,  10,   1,1.01547,  26.5818,1.10000,0.90000,1.10000,0.90000
  2066,'CAGG        ', 132.0000,1,   1,   5,   1,1.03487,  14.9270,1.10000,0.90000,1.10000,0.90000
  2068,'CAGI        ', 132.0000,2,   1,  10,   1,1.01769,  22.7156,1.10000,0.90000,1.10000,0.90000
  2069,'CAGJ        ', 132.0000,2,   1,   5,   1,1.02820,  13.6755,1.10000,0.90000,1.10000,0.90000
  2071,'CAHB        ', 132.0000,2,   1,  10,   1,1.01466,  34.6383,1.10000,0.90000,1.10000,0.90000
  2072,'CAHC        ', 132.0000,2,   1,  10,   1,1.01448,  34.0351,1.10000,0.90000,1.10000,0.90000
  2093,'CAJD        ', 132.0000,2,   1,  10,   1,1.02305,  36.8281,1.10000,0.90000,1.10000,0.90000
  2095,'CAJF        ', 132.0000,2,   1,  10,   1,1.02082,  36.1065,1.10000,0.90000,1.10000,0.90000
  2097,'CAJH        ', 132.0000,2,   1,  10,   1,1.01492,  26.0133,1.10000,0.90000,1.10000,0.90000
  2100,'CBAA        ', 132.0000,2,   1,   5,   1,1.03547,  14.8369,1.10000,0.90000,1.10000,0.90000
  2140,'CBEA        ', 132.0000,2,   1,  10,   1,1.05515,  29.8338,1.10000,0.90000,1.10000,0.90000
  2155,'CBFF        ',  66.0000,1,   1,   6,   1,1.01382,  14.7109,1.10000,0.90000,1.10000,0.90000
  2181,'CBIB        ',  66.0000,2,   1,   7,   1,1.05559,  14.5934,1.10000,0.90000,1.10000,0.90000
  2187,'CBIH        ', 132.0000,2,   1,  10,   1,1.01661,  26.7053,1.10000,0.90000,1.10000,0.90000
  2199,'CBJJ        ', 132.0000,2,   1,  10,   1,1.02419,  29.2857,1.10000,0.90000,1.10000,0.90000
  2200,'CCAA        ',  66.0000,2,   1,   6,   1,1.04208,  14.0831,1.10000,0.90000,1.10000,0.90000
  2202,'CCAC        ',  66.0000,2,   1,   6,   1,1.05033,  15.4380,1.10000,0.90000,1.10000,0.90000
  2206,'LCANTERA    ',   1.0000,1,   1,   6,   1,1.04045,  13.7983,1.10000,0.90000,1.10000,0.90000
  2208,'CCAI        ',  66.0000,2,   1,   6,   1,1.01459,  14.9484,1.10000,0.90000,1.10000,0.90000
  2209,'CCAJ        ', 132.0000,1,   1,  10,   1,1.03190,  23.9220,1.10000,0.90000,1.10000,0.90000
  2214,'CCBE        ',  66.0000,2,   1,   6,   1,1.04260,  14.0769,1.10000,0.90000,1.10000,0.90000
  2215,'CCBF        ',  66.0000,2,   1,   6,   1,1.04224,  14.0813,1.10000,0.90000,1.10000,0.90000
  2216,'CCBG        ', 132.0000,2,   1,   5,   1,1.03547,  14.8701,1.10000,0.90000,1.10000,0.90000
  2234,'CCDE        ', 132.0000,2,   1,   5,   1,1.03571,  15.3759,1.10000,0.90000,1.10000,0.90000
  2243,'CCED        ', 132.0000,1,   1,   5,   1,1.02474,  13.6042,1.10000,0.90000,1.10000,0.90000
  2245,'CCEF        ', 132.0000,1,   1,  10,   1,1.02212,  29.9648,1.10000,0.90000,1.10000,0.90000
  2246,'CCEG        ', 132.0000,2,   1,   5,   1,1.02587,  13.6126,1.10000,0.90000,1.10000,0.90000
  2258,'CCFI        ', 132.0000,2,   1,   5,   1,1.03466,  14.7727,1.10000,0.90000,1.10000,0.90000
  2288,'CCII        ', 132.0000,2,   1,   5,   1,1.03537,  14.8752,1.10000,0.90000,1.10000,0.90000
  2292,'CCJC        ', 132.0000,2,   1,  10,   1,1.02673,  29.7538,1.10000,0.90000,1.10000,0.90000
  2301,'CDAB        ',  66.0000,2,   1,  10,   1,1.02460,  32.2772,1.10000,0.90000,1.10000,0.90000
  2323,'CDCD        ', 132.0000,2,   1,  10,   1,0.97790,  27.6215,1.10000,0.90000,1.10000,0.90000
  2324,'CDCE        ', 132.0000,2,   1,   5,   1,1.02421,  13.6735,1.10000,0.90000,1.10000,0.90000
  2331,'CDDB        ', 132.0000,2,   1,   5,   1,1.03468,  15.1061,1.10000,0.90000,1.10000,0.90000
  2339,'CDDJ        ', 132.0000,2,   1,   5,   1,1.02746,  13.9798,1.10000,0.90000,1.10000,0.90000
  2342,'CDEC        ', 132.0000,2,   1,   5,   1,1.03429,  15.0114,1.10000,0.90000,1.10000,0.90000
  2354,'CDFE        ', 132.0000,2,   1,   5,   1,0.98520,  21.7467,1.10000,0.90000,1.10000,0.90000
  2355,'CDFF        ', 132.0000,2,   1,   5,   1,0.98977,  22.9522,1.10000,0.90000,1.10000,0.90000
  2356,'CDFG        ',  66.0000,2,   1,  10,   1,0.99924,  26.4018,1.10000,0.90000,1.10000,0.90000
  2366,'CDGG        ', 132.0000,2,   1,  10,   1,1.00792,  35.3957,1.10000,0.90000,1.10000,0.90000
  2387,'CDIH        ', 132.0000,2,   1,  10,   1,1.01603,  26.5360,1.10000,0.90000,1.10000,0.90000
  2388,'CDII        ', 132.0000,2,   1,  10,   1,1.01559,  26.5628,1.10000,0.90000,1.10000,0.90000
  2401,'CEAB        ', 132.0000,1,   1,  10,   1,0.97754,  27.5747,1.10000,0.90000,1.10000,0.90000