0,   100.00,  32, 0, 1, 60.00     / PSS(R)E 32 RAW created by rawd32  THU, APR 02 2020  18:37
 08/25/93 UW ARCHIVE           100.0  1961 W IEEE 118 BUS TE

     1,'RIVERSDE    ', 138.0000,2,   1,   1,   1,0.95500,  10.9828
     2,'POKAGON     ', 138.0000,1,   1,   1,   1,0.97139,  11.5228
     3,'HICKRYCK    ', 138.0000,1,   1,   1,   1,0.96769,  11.8662
     4,'NWCARLSL    ', 138.0000,2,   1,   1,   1,0.99800,  15.5836
     5,'OLIVE       ', 138.0000,1,   1,   1,   1,1.00198,  16.0287
     6,'KANKAKEE    ', 138.0000,2,   1,   1,   1,0.99000,  13.3018
     7,'JACKSNRD    ', 138.0000,1,   1,   1,   1,0.98933,  12.8575
     8,'OLIVE       ', 138.0000,2,   1,   1,   1,1.01500,  21.0492
     9,'BEQUINE     ', 138.0000,1,   1,   1,   1,1.04292,  28.3033
    10,'BREED       ', 138.0000,2,   1,   1,   1,1.05000,  35.8842
    11,'SOUTHBND    ', 138.0000,1,   1,   1,   1,0.98509,  13.0161
    12,'TWINBRCH    ', 138.0000,2,   1,   1,   1,0.99000,  12.4993
    13,'CONCORD     ', 138.0000,1,   1,   1,   1,0.96830,  11.6412
    14,'GOSHENJT    ', 138.0000,1,   1,   1,   1,0.98359,  11.7831
    15,'FTWAYNE     ', 138.0000,2,   1,   1,   1,0.97000,  11.4894
    16,'N. E.       ', 138.0000,1,   1,   1,   1,0.98391,  12.1978
    17,'SORENSON    ', 138.0000,1,   1,   1,   1,0.99513,  14.0056
    18,'MCKINLEY    ', 138.0000,2,   1,   1,   1,0.97300,  11.7920
    19,'LINCOLN     ', 138.0000,2,   1,   1,   1,0.96343,  11.3074
    20,'ADAMS       ', 138.0000,1,   1,   1,   1,0.95806,  12.1872
    21,'JAY         ', 138.0000,1,   1,   1,   1,0.95862,  13.7751
    22,'RANDOLPH    ', 138.0000,1,   1,   1,   1,0.96965,  16.3296
    23,'COLLCRNR    ', 138.0000,1,   1,   1,   1,0.99966,  21.2503
    24,'TRENTON     ', 138.0000,2,   1,   1,   1,0.99200,  21.1181
    25,'TANNRSCK    ', 138.0000,2,   1,   1,   1,1.05000,  28.1844
    26,'TANNRSCK    ', 138.0000,2,   1,   1,   1,1.01500,  29.9650
    27,'MADISON     ', 138.0000,2,   1,   1,   1,0.96800,  15.6126
    28,'MULLIN      ', 138.0000,1,   1,   1,   1,0.96157,  13.8880
    29,'GRANT       ', 138.0000,1,   1,   1,   1,0.96322,  12.8956
    30,'SORENSON    ', 138.0000,1,   1,   1,   1,0.98552,  19.0402
    31,'DEERCRK     ', 138.0000,2,   1,   1,   1,0.96700,  13.0125
    32,'DELAWARE    ', 138.0000,2,   1,   1,   1,0.96359,  15.0600
    33,'HAVILAND    ', 138.0000,1,   1,   1,   1,0.97156,  10.8645
    34,'ROCKHILL    ', 138.0000,2,   1,   1,   1,0.98586,  11.5065
    35,'WESTLIMA    ', 138.0000,1,   1,   1,   1,0.98068,  11.0793
    36,'STERLING    ', 138.0000,2,   1,   1,   1,0.98000,  11.0837
    37,'EASTLIMA    ', 138.0000,1,   1,   1,   1,0.99198,  11.9703
    38,'EASTLIMA    ', 138.0000,1,   1,   1,   1,0.96198,  17.1072
    39,'NWLIBRTY    ', 138.0000,1,   1,   1,   1,0.97045,   8.5978
    40,'WEST END    ', 138.0000,2,   1,   1,   1,0.97000,   7.5240
    41,'S.TIFFIN    ', 138.0000,1,   1,   1,   1,0.96683,   7.0779
    42,'HOWARD      ', 138.0000,2,   1,   1,   1,0.98500,   8.6734
    43,'S.KENTON    ', 138.0000,1,   1,   1,   1,0.97848,  11.4604
    44,'WMVERNON    ', 138.0000,1,   1,   1,   1,0.98501,  13.9460
    45,'N.NEWARK    ', 138.0000,1,   1,   1,   1,0.98665,  15.7768
    46,'W.LANCST    ', 138.0000,2,   1,   1,   1,1.00500,  18.5827
    47,'CROOKSVL    ', 138.0000,1,   1,   1,   1,1.01705,  20.8051
    48,'ZANESVLL    ', 138.0000,1,   1,   1,   1,1.02063,  20.0253
    49,'PHILO       ', 138.0000,2,   1,   1,   1,1.02500,  21.0284
    50,'WCAMBRDG    ', 138.0000,1,   1,   1,   1,1.00108,  18.9894
    51,'NEWCMRST    ', 138.0000,1,   1,   1,   1,0.96688,  16.3703
    52,'SCOSHOCT    ', 138.0000,1,   1,   1,   1,0.95682,  15.4169
    53,'WOOSTER     ', 138.0000,1,   1,   1,   1,0.94598,  14.4419
    54,'TORREY      ', 138.0000,2,   1,   1,   1,0.95500,  15.3537
    55,'WAGENHLS    ', 138.0000,2,   1,   1,   1,0.95200,  15.0637
    56,'SUNNYSDE    ', 138.0000,2,   1,   1,   1,0.95400,  15.2504
    57,'WNWPHIL1    ', 138.0000,1,   1,   1,   1,0.97058,  16.4552
    58,'WNWPHIL2    ', 138.0000,1,   1,   1,   1,0.95904,  15.5984
    59,'TIDD        ', 138.0000,2,   1,   1,   1,0.98500,  19.4530
    60,'SWKAMMER    ', 138.0000,1,   1,   1,   1,0.99316,  23.2343
    61,'W.KAMMER    ', 138.0000,2,   1,   1,   1,0.99500,  24.1257
    62,'NATRIUM     ', 138.0000,2,   1,   1,   1,0.99800,  23.5091
    63,'TIDD        ', 138.0000,1,   1,   1,   1,0.96874,  22.8316
    64,'KAMMER      ', 138.0000,1,   1,   1,   1,0.98374,  24.5973
    65,'MUSKNGUM    ', 138.0000,2,   1,   1,   1,1.00500,  27.7224
    66,'MUSKNGUM    ', 138.0000,2,   1,   1,   1,1.05000,  27.5634
    67,'SUMMERFL    ', 138.0000,1,   1,   1,   1,1.01968,  24.9235
    68,'SPORN       ', 138.0000,1,   1,   1,   1,1.00325,  27.6013
    69,'SPORN       ', 138.0000,3,   1,   1,   1,1.03500,  30.0000
    70,'PORTSMTH    ', 138.0000,2,   1,   1,   1,0.98400,  22.6205
    71,'NPORTSMT    ', 138.0000,1,   1,   1,   1,0.98684,  22.2096
    72,'HILLSBRO    ', 138.0000,2,   1,   1,   1,0.98000,  21.1120
    73,'SARGENTS    ', 138.0000,2,   1,   1,   1,0.99100,  21.9981
    74,'BELLEFNT    ', 138.0000,2,   1,   1,   1,0.95800,  21.6718
    75,'STHPOINT    ', 138.0000,1,   1,   1,   1,0.96733,  22.9337
    76,'DARRAH      ', 138.0000,2,   1,   1,   1,0.94300,  21.8042
    77,'TURNER      ', 138.0000,2,   1,   1,   1,1.00600,  26.7587
    78,'CHEMICAL    ', 138.0000,1,   1,   1,   1,1.00342,  26.4549
    79,'CAPITLHL    ', 138.0000,1,   1,   1,   1,1.00922,  26.7541
    80,'CABINCRK    ', 138.0000,2,   1,   1,   1,1.04000,  28.9999
    81,'KANAWHA     ', 138.0000,1,   1,   1,   1,0.99681,  28.1508
    82,'LOGAN       ', 138.0000,1,   1,   1,   1,0.98874,  27.2804
    83,'SPRIGG      ', 138.0000,1,   1,   1,   1,0.98452,  28.4707
    84,'BETSYLNE    ', 138.0000,1,   1,   1,   1,0.97975,  31.0046
    85,'BEAVERCK    ', 138.0000,2,   1,   1,   1,0.98500,  32.5588
    86,'HAZARD      ', 138.0000,1,   1,   1,   1,0.98669,  31.1894
    87,'PINEVLLE    ', 138.0000,2,   1,   1,   1,1.01500,  31.4486
    88,'FREMONT     ', 138.0000,1,   1,   1,   1,0.98746,  35.6902
    89,'CLINCHRV    ', 138.0000,2,   1,   1,   1,1.00500,  39.7458
    90,'HOLSTON     ', 138.0000,2,   1,   1,   1,0.98500,  33.3411
    91,'HOLSTONT    ', 138.0000,2,   1,   1,   1,0.98000,  33.3601
    92,'SALTVLLE    ', 138.0000,2,   1,   1,   1,0.99228,  33.8592
    93,'TAZEWELL    ', 138.0000,1,   1,   1,   1,0.98691,  30.8481
    94,'SWITCHBK    ', 138.0000,1,   1,   1,   1,0.99057,  28.6941
    95,'CALDWELL    ', 138.0000,1,   1,   1,   1,0.98092,  27.7218
    96,'BAILEYSV    ', 138.0000,1,   1,   1,   1,0.99267,  27.5539
    97,'SUNDIAL     ', 138.0000,1,   1,   1,   1,1.01137,  27.9264
    98,'BRADLEY     ', 138.0000,1,   1,   1,   1,1.02351,  27.4497
    99,'HINTON      ', 138.0000,2,   1,   1,   1,1.01000,  27.0891
   100,'GLEN LYN    ', 138.0000,2,   1,   1,   1,1.01700,  28.0863
   101,'WYTHE       ', 138.0000,1,   1,   1,   1,0.99244,  29.6586
   102,'SMYTHE      ', 138.0000,1,   1,   1,   1,0.99100,  32.3560
   103,'CLAYTOR     ', 138.0000,2,   1,   1,   1,1.00072,  24.4935
   104,'HANCOCK     ', 138.0000,2,   1,   1,   1,0.97100,  21.7479
   105,'ROANOKE     ', 138.0000,2,   1,   1,   1,0.96599,  20.6259
   106,'CLOVERDL    ', 138.0000,1,   1,   1,   1,0.96179,  20.3778
   107,'REUSENS     ', 138.0000,2,   1,   1,   1,0.95200,  17.5878
   108,'BLAINE      ', 138.0000,1,   1,   1,   1,0.96681,  19.4352
   109,'FRANKLIN    ', 138.0000,1,   1,   1,   1,0.96746,  18.9861
   110,'FIELDALE    ', 138.0000,2,   1,   1,   1,0.97300,  18.1474
   111,'DANRIVER    ', 138.0000,2,   1,   1,   1,0.98000,  19.7925
   112,'DANVILLE    ', 138.0000,2,   1,   1,   1,0.97500,  15.0482
   113,'DEER CRK    ', 138.0000,2,   1,   1,   1,0.99300,  14.0037
   114,'WMEDFORD    ', 138.0000,1,   1,   1,   1,0.96044,  14.7298
   115,'MEDFORD     ', 138.0000,1,   1,   1,   1,0.96032,  14.7221
   116,'KYGERCRK    ', 138.0000,2,   1,   1,   1,1.00500,  27.1664
   117,'COREY       ', 138.0000,1,   1,   1,   1,0.97382,  10.9583
   118,'WHUNTNGD    ', 138.0000,1,   1,   1,   1,0.94944,  21.9462
 0 /End of Bus data, Begin Load data
     1,'1 ',1,   1,   1,    51.000,    27.000,     0.000,     0.000,     0.000,     0.000,   1,1
     2,'1 ',1,   1,   1,    20.000,     9.000,     0.000,     0.000,     0.000,     0.000,   1,1
     3,'1 ',1,   1,   1,    39.000,    10.000,     0.000,     0.000,     0.000,     0.000,   1,1
     4,'1 ',1,   1,   1,    39.000,    12.000,     0.000,     0.000,     0.000,     0.000,   1,1
     6,'1 ',1,   1,   1,    52.000,    22.000,     0.000,     0.000,     0.000,     0.000,   1,1
     7,'1 ',1,   1,   1,    19.000,     2.000,     0.000,     0.000,     0.000,     0.000,   1,1
     8,'1 ',1,   1,   1,    28.000,     0.000,     0.000,     0.000,     0.000,     0.000,   1,1
    11,'1 ',1,   1,   1,    70.000,    23.000,     0.000,     0.000,     0.000,     0.000,   1,1
    12,'1 ',1,   1,   1,    47.000,    10.000,     0.000,     0.000,     0.000,     0.000,   1,1
    13,'1 ',1,   1,   1,    34.000,    16.000,     0.000,     0.000,     0.000,     0.000,   1,1
    14,'1 ',1,   1,   1,    14.000,     1.000,     0.000,     0.000,     0.000,     0.000,   1,1
    15,'1 ',1,   1,   1,    90.000,    30.000,     0.000,     0.000,     0.000,     0.000,   1,1
    16,'1 ',1,   1,   1,    25.000,    10.000,     0.000,     0.000,     0.000,     0.000,   1,1
    17,'1 ',1,   1,   1,    11.000,     3.000,     0.000,     0.000,     0.000,     0.000,   1,1
    18,'1 ',1,   1,   1,    60.000,    34.000,     0.000,     0.000,     0.000,     0.000,   1,1
    19,'1 ',1,   1,   1,    45.000,    25.000,     0.000,     0.000,     0.000,     0.000,   1,1
    20,'1 ',1,   1,   1,    18.000,     3.000,     0.000,     0.000,     0.000,     0.000,   1,1
    21,'1 ',1,   1,   1,    14.000,     8.000,     0.000,     0.000,     0.000,     0.000,   1,1
    22,'1 ',1,   1,   1,    10.000,     5.000,     0.000,     0.000,     0.000,     0.000,   1,1
    23,'1 ',1,   1,   1,     7.000,     3.000,     0.000,     0.000,     0.000,     0.000,   1,1
    24,'1 ',1,   1,   1,    13.000,     0.000,     0.000,     0.000,     0.000,     0.000,   1,1
    27,'1 ',1,   1,   1,    71.000,    13.000,     0.000,     0.000,     0.000,     0.000,   1,1
    28,'1 ',1,   1,   1,    17.000,     7.000,     0.000,     0.000,     0.000,     0.000,   1,1
    29,'1 ',1,   1,   1,    24.000,     4.000,     0.000,     0.000,     0.000,     0.000,   1,1
    31,'1 ',1,   1,   1,    43.000,    27.000,     0.000,     0.000,     0.000,     0.000,   1,1
    32,'1 ',1,   1,   1,    59.000,    23.000,     0.000,     0.000,     0.000,     0.000,   1,1
    33,'1 ',1,   1,   1,    23.000,     9.000,     0.000,     0.000,     0.000,     0.000,   1,1
    34,'1 ',1,   1,   1,    59.000,    26.000,     0.000,     0.000,     0.000,     0.000,   1,1
    35,'1 ',1,   1,   1,    33.000,     9.000,     0.000,     0.000,     0.000,     0.000,   1,1
    36,'1 ',1,   1,   1,    31.000,    17.000,     0.000,     0.000,     0.000,     0.000,   1,1
    39,'1 ',1,   1,   1,    27.000,    11.000,     0.000,     0.000,     0.000,     0.000,   1,1
    40,'1 ',1,   1,   1,    66.000,    23.000,     0.000,     0.000,     0.000,     0.000,   1,1
    41,'1 ',1,   1,   1,    37.000,    10.000,     0.000,     0.000,     0.000,     0.000,   1,1
    42,'1 ',1,   1,   1,    96.000,    23.000,     0.000,     0.000,     0.000,     0.000,   1,1
    43,'1 ',1,   1,   1,    18.000,     7.000,     0.000,     0.000,     0.000,     0.000,   1,1
    44,'1 ',1,   1,   1,    16.000,     8.000,     0.000,     0.000,     0.000,     0.000,   1,1
    45,'1 ',1,   1,   1,    53.000,    22.000,     0.000,     0.000,     0.000,     0.000,   1,1
    46,'1 ',1,   1,   1,    28.000,    10.000,     0.000,     0.000,     0.000,     0.000,   1,1
    47,'1 ',1,   1,   1,    34.000,     0.000,     0.000,     0.000,     0.000,     0.000,   1,1
    48,'1 ',1,   1,   1,    20.000,    11.000,     0.000,     0.000,     0.000,     0.000,   1,1
    49,'1 ',1,   1,   1,    87.000,    30.000,     0.000,     0.000,     0.000,     0.000,   1,1
    50,'1 ',1,   1,   1,    17.000,     4.000,     0.000,     0.000,     0.000,     0.000,   1,1
    51,'1 ',1,   1,   1,    17.000,     8.000,     0.000,     0.000,     0.000,     0.000,   1,1
    52,'1 ',1,   1,   1,    18.000,     5.000,     0.000,     0.000,     0.000,     0.000,   1,1
    53,'1 ',1,   1,   1,    23.000,    11.000,     0.000,     0.000,     0.000,     0.000,   1,1
    54,'1 ',1,   1,   1,   113.000,    32.000,     0.000,     0.000,     0.000,     0.000,   1,1
    55,'1 ',1,   1,   1,    63.000,    22.000,     0.000,     0.000,     0.000,     0.000,   1,1
    56,'1 ',1,   1,   1,    84.000,    18.000,     0.000,     0.000,     0.000,     0.000,   1,1
    57,'1 ',1,   1,   1,    12.000,     3.000,     0.000,     0.000,     0.000,     0.000,   1,1
    58,'1 ',1,   1,   1,    12.000,     3.000,     0.000,     0.000,     0.000,     0.000,   1,1
    59,'1 ',1,   1,   1,   277.000,   113.000,     0.000,     0.000,     0.000,     0.000,   1,1
    60,'1 ',1,   1,   1,    78.000,     3.000,     0.000,     0.000,     0.000,     0.000,   1,1
    62,'1 ',1,   1,   1,    77.000,    14.000,     0.000,     0.000,     0.000,     0.000,   1,1
    66,'1 ',1,   1,   1,    39.000,    18.000,     0.000,     0.000,     0.000,     0.000,   1,1
    67,'1 ',1,   1,   1,    28.000,     7.000,     0.000,     0.000,     0.000,     0.000,   1,1
    70,'1 ',1,   1,   1,    66.000,    20.000,     0.000,     0.000,     0.000,     0.000,   1,1
    72,'1 ',1,   1,   1,    12.000,     0.000,     0.000,     0.000,     0.000,     0.000,   1,1
    73,'1 ',1,   1,   1,     6.000,     0.000,     0.000,     0.000,     0.000,     0.000,   1,1
    74,'1 ',1,   1,   1,    68.000,    27.000,     0.000,     0.000,     0.000,     0.000,   1,1
    75,'1 ',1,   1,   1,    47.000,    11.000,     0.000,     0.000,     0.000,     0.000,   1,1
    76,'1 ',1,   1,   1,    68.000,    36.000,     0.000,     0.000,     0.000,     0.000,   1,1
    77,'1 ',1,   1,   1,    61.000,    28.000,     0.000,     0.000,     0.000,     0.000,   1,1
    78,'1 ',1,   1,   1,    71.000,    26.000,     0.000,     0.000,     0.000,     0.000,   1,1
    79,'1 ',1,   1,   1,    39.000,    32.000,     0.000,     0.000,     0.000,     0.000,   1,1
    80,'1 ',1,   1,   1,   130.000,    26.000,     0.000,     0.000,     0.000,     0.000,   1,1
    82,'1 ',1,   1,   1,    54.000,    27.000,     0.000,     0.000,     0.000,     0.000,   1,1
    83,'1 ',1,   1,   1,    20.000,    10.000,     0.000,     0.000,     0.000,     0.000,   1,1
    84,'1 ',1,   1,   1,    11.000,     7.000,     0.000,     0.000,     0.000,     0.000,   1,1
    85,'1 ',1,   1,   1,    24.000,    15.000,     0.000,     0.000,     0.000,     0.000,   1,1
    86,'1 ',1,   1,   1,    21.000,    10.000,     0.000,     0.000,     0.000,     0.000,   1,1
    88,'1 ',1,   1,   1,    48.000,    10.000,     0.000,     0.000,     0.000,     0.000,   1,1
    90,'1 ',1,   1,   1,   163.000,    42.000,     0.000,     0.000,     0.000,     0.000,   1,1
    91,'1 ',1,   1,   1,    10.000,     0.000,     0.000,     0.000,     0.000,     0.000,   1,1
    92,'1 ',1,   1,   1,    65.000,    10.000,     0.000,     0.000,     0.000,     0.000,   1,1
    93,'1 ',1,   1,   1,    12.000,     7.000,     0.000,     0.000,     0.000,     0.000,   1,1
    94,'1 ',1,   1,   1,    30.000,    16.000,     0.000,     0.000,     0.000,     0.000,   1,1
    95,'1 ',1,   1,   1,    42.000,    31.000,     0.000,     0.000,     0.000,     0.000,   1,1
    96,'1 ',1,   1,   1,    38.000,    15.000,     0.000,     0.000,     0.000,     0.000,   1,1
    97,'1 ',1,   1,   1,    15.000,     9.000,     0.000,     0.000,     0.000,     0.000,   1,1
    98,'1 ',1,   1,   1,    34.000,     8.000,     0.000,     0.000,     0.000,     0.000,   1,1
    99,'1 ',1,   1,   1,    42.000,     0.000,     0.000,     0.000,     0.000,     0.000,   1,1
   100,'1 ',1,   1,   1,    37.000,    18.000,     0.000,     0.000,     0.000,     0.000,   1,1
   101,'1 ',1,   1,   1,    22.000,    15.000,     0.000,     0.000,     0.000,     0.000,   1,1
   102,'1 ',1,   1,   1,     5.000,     3.000,     0.000,     0.000,     0.000,     0.000,   1,1
   103,'1 ',1,   1,   1,    23.000,    16.000,     0.000,     0.000,     0.000,     0.000,   1,1
   104,'1 ',1,   1,   1,    38.000,    25.000,     0.000,     0.000,     0.000,     0.000,   1,1
   105,'1 ',1,   1,   1,    31.000,    26.000,     0.000,     0.000,     0.000,     0.000,   1,1
   106,'1 ',1,   1,   1,    43.000,    16.000,     0.000,     0.000,     0.000,     0.000,   1,1
   107,'1 ',1,   1,   1,    50.000,    12.000,     0.000,     0.000,     0.000,     0.000,   1,1
   108,'1 ',1,   1,   1,     2.000,     1.000,     0.000,     0.000,     0.000,     0.000,   1,1
   109,'1 ',1,   1,   1,     8.000,     3.000,     0.000,     0.000,     0.000,     0.000,   1,1
   110,'1 ',1,   1,   1,    39.000,    30.000,     0.000,     0.000,     0.000,     0.000,   1,1
   112,'1 ',1,   1,   1,    68.000,    13.000,     0.000,     0.000,     0.000,     0.000,   1,1
   113,'1 ',1,   1,   1,     6.000,     0.000,     0.000,     0.000,     0.000,     0.000,   1,1
   114,'1 ',1,   1,   1,     8.000,     3.000,     0.000,     0.000,     0.000,     0.000,   1,1
   115,'1 ',1,   1,   1,    22.000,     7.000,     0.000,     0.000,     0.000,     0.000,   1,1
   116,'1 ',1,   1,   1,   184.000,     0.000,     0.000,     0.000,     0.000,     0.000,   1,1
   117,'1 ',1,   1,   1,    20.000,     8.000,     0.000,     0.000,     0.000,     0.000,   1,1
   118,'1 ',1,   1,   1,    33.000,    15.000,     0.000,     0.000,     0.000,     0.000,   1,1
 0 /End of Load data, Begin Fixed shunt data
     5,' 1',1,     0.000,   -40.000
    34,' 1',1,     0.000,    14.000
    37,' 1',1,     0.000,   -25.000
    44,' 1',1,     0.000,    10.000
    45,' 1',1,     0.000,    10.000
    46,' 1',1,     0.000,    10.000
    48,' 1',1,     0.000,    15.000
    74,' 1',1,     0.000,    12.000
    79,' 1',1,     0.000,    20.000
    82,' 1',1,     0.000,    20.000
    83,' 1',1,     0.000,    10.000
   105,' 1',1,     0.000,    20.000
   107,' 1',1,     0.000,     6.000
   110,' 1',1,     0.000,     6.000
 0 /End of Fixed shunt data, Begin Generator data
     1,'1 ',     0.000,    -3.104,    15.000,    -5.000,0.95500,     0,   100.000, 0.00000E+0, 1.00000E+0, 0.00000E+0, 0.00000E+0,1.00000,1,  100.0, 10000.000,-10000.000,   1,1.0000
     4,'1 ',     0.000,   -15.005,   300.000,  -300.000,0.99800,     0,   100.000, 0.00000E+0, 1.00000E+0, 0.00000E+0, 0.00000E+0,1.00000,1,  100.0, 10000.000,-10000.000,   1,1.0000
     6,'1 ',     0.000,    15.930,    50.000,   -13.000,0.99000,     0,   100.000, 0.00000E+0, 1.00000E+0, 0.00000E+0, 0.00000E+0,1.00000,1,  100.0, 10000.000,-10000.000,   1,1.0000
     8,'1 ',     0.000,    62.758,   300.000,  -300.000,1.01500,     0,   100.000, 0.00000E+0, 1.00000E+0, 0.00000E+0, 0.00000E+0,1.00000,1,  100.0, 10000.000,-10000.000,   1,1.0000
    10,'1 ',   450.000,   -51.042,   200.000,  -147.000,1.05000,     0,   100.000, 0.00000E+0, 1.00000E+0, 0.00000E+0, 0.00000E+0,1.00000,1,  100.0, 10000.000,-10000.000,   1,1.0000
    12,'1 ',    85.000,    91.274,   120.000,   -35.000,0.99000,     0,   100.000, 0.00000E+0, 1.00000E+0, 0.00000E+0, 0.00000E+0,1.00000,1,  100.0, 10000.000,-10000.000,   1,1.0000
    15,'1 ',     0.000,     3.060,    30.000,   -10.000,0.97000,     0,   100.000, 0.00000E+0, 1.00000E+0, 0.00000E+0, 0.00000E+0,1.00000,1,  100.0, 10000.000,-10000.000,   1,1.0000
    18,'1 ',     0.000,    25.532,    50.000,   -16.000,0.97300,     0,   100.000, 0.00000E+0, 1.00000E+0, 0.00000E+0, 0.00000E+0,1.00000,1,  100.0, 10000.000,-10000.000,   1,1.0000
    19,'1 ',     0.000,    -8.000,    24.000,    -8.000,0.96200,     0,   100.000, 0.00000E+0, 1.00000E+0, 0.00000E+0, 0.00000E+0,1.00000,1,  100.0, 10000.000,-10000.000,   1,1.0000
    24,'1 ',     0.000,   -15.282,   300.000,  -300.000,0.99200,     0,   100.000, 0.00000E+0, 1.00000E+0, 0.00000E+0, 0.00000E+0,1.00000,1,  100.0, 10000.000,-10000.000,   1,1.0000
    25,'1 ',   220.000,    49.798,   140.000,   -47.000,1.05000,     0,   100.000, 0.00000E+0, 1.00000E+0, 0.00000E+0, 0.00000E+0,1.00000,1,  100.0, 10000.000,-10000.000,   1,1.0000
    26,'1 ',   314.000,     9.905,  1000.000, -1000.000,1.01500,     0,   100.000, 0.00000E+0, 1.00000E+0, 0.00000E+0, 0.00000E+0,1.00000,1,  100.0, 10000.000,-10000.000,   1,1.0000
    27,'1 ',     0.000,     2.831,   300.000,  -300.000,0.96800,     0,   100.000, 0.00000E+0, 1.00000E+0, 0.00000E+0, 0.00000E+0,1.00000,1,  100.0, 10000.000,-10000.000,   1,1.0000
    31,'1 ',     7.000,    31.976,   300.000,  -300.000,0.96700,     0,   100.000, 0.00000E+0, 1.00000E+0, 0.00000E+0, 0.00000E+0,1.00000,1,  100.0, 10000.000,-10000.000,   1,1.0000
    32,'1 ',     0.000,   -14.000,    42.000,   -14.000,0.96300,     0,   100.000, 0.00000E+0, 1.00000E+0, 0.00000E+0, 0.00000E+0,1.00000,1,  100.0, 10000.000,-10000.000,   1,1.0000
    34,'1 ',     0.000,    -8.000,    24.000,    -8.000,0.98400,     0,   100.000, 0.00000E+0, 1.00000E+0, 0.00000E+0, 0.00000E+0,1.00000,1,  100.0, 10000.000,-10000.000,   1,1.0000
    36,'1 ',     0.000,    -1.252,    24.000,    -8.000,0.98000,     0,   100.000, 0.00000E+0, 1.00000E+0, 0.00000E+0, 0.00000E+0,1.00000,1,  100.0, 10000.000,-10000.000,   1,1.0000
    40,'1 ',     0.000,    26.886,   300.000,  -300.000,0.97000,     0,   100.000, 0.00000E+0, 1.00000E+0, 0.00000E+0, 0.00000E+0,1.00000,1,  100.0, 10000.000,-10000.000,   1,1.0000
    42,'1 ',     0.000,    41.004,   300.000,  -300.000,0.98500,     0,   100.000, 0.00000E+0, 1.00000E+0, 0.00000E+0, 0.00000E+0,1.00000,1,  100.0, 10000.000,-10000.000,   1,1.0000
    46,'1 ',    19.000,    -5.231,   100.000,  -100.000,1.00500,     0,   100.000, 0.00000E+0, 1.00000E+0, 0.00000E+0, 0.00000E+0,1.00000,1,  100.0, 10000.000,-10000.000,   1,1.0000
    49,'1 ',   204.000,   115.647,   210.000,   -85.000,1.02500,     0,   100.000, 0.00000E+0, 1.00000E+0, 0.00000E+0, 0.00000E+0,1.00000,1,  100.0, 10000.000,-10000.000,   1,1.0000
    54,'1 ',    48.000,     3.902,   300.000,  -300.000,0.95500,     0,   100.000, 0.00000E+0, 1.00000E+0, 0.00000E+0, 0.00000E+0,1.00000,1,  100.0, 10000.000,-10000.000,   1,1.0000
    55,'1 ',     0.000,     4.664,    23.000,    -8.000,0.95200,     0,   100.000, 0.00000E+0, 1.00000E+0, 0.00000E+0, 0.00000E+0,1.00000,1,  100.0, 10000.000,-10000.000,   1,1.0000
    56,'1 ',     0.000,    -2.286,    15.000,    -8.000,0.95400,     0,   100.000, 0.00000E+0, 1.00000E+0, 0.00000E+0, 0.00000E+0,1.00000,1,  100.0, 10000.000,-10000.000,   1,1.0000
    59,'1 ',   155.000,    76.834,   180.000,   -60.000,0.98500,     0,   100.000, 0.00000E+0, 1.00000E+0, 0.00000E+0, 0.00000E+0,1.00000,1,  100.0, 10000.000,-10000.000,   1,1.0000
    61,'1 ',   160.000,   -40.394,   300.000,  -100.000,0.99500,     0,   100.000, 0.00000E+0, 1.00000E+0, 0.00000E+0, 0.00000E+0,1.00000,1,  100.0, 10000.000,-10000.000,   1,1.0000
    62,'1 ',     0.000,     1.259,    20.000,   -20.000,0.99800,     0,   100.000, 0.00000E+0, 1.00000E+0, 0.00000E+0, 0.00000E+0,1.00000,1,  100.0, 10000.000,-10000.000,   1,1.0000
    65,'1 ',   391.000,    80.812,   200.000,   -67.000,1.00500,     0,   100.000, 0.00000E+0, 1.00000E+0, 0.00000E+0, 0.00000E+0,1.00000,1,  100.0, 10000.000,-10000.000,   1,1.0000
    66,'1 ',   392.000,    -1.951,   200.000,   -67.000,1.05000,     0,   100.000, 0.00000E+0, 1.00000E+0, 0.00000E+0, 0.00000E+0,1.00000,1,  100.0, 10000.000,-10000.000,   1,1.0000
    69,'1 ',   513.388,   -82.378,   300.000,  -300.000,1.03500,     0,   100.000, 0.00000E+0, 1.00000E+0, 0.00000E+0, 0.00000E+0,1.00000,1,  100.0, 10000.000,-10000.000,   1,1.0000
    70,'1 ',     0.000,     9.664,    32.000,   -10.000,0.98400,     0,   100.000, 0.00000E+0, 1.00000E+0, 0.00000E+0, 0.00000E+0,1.00000,1,  100.0, 10000.000,-10000.000,   1,1.0000
    72,'1 ',     0.000,   -11.130,   100.000,  -100.000,0.98000,     0,   100.000, 0.00000E+0, 1.00000E+0, 0.00000E+0, 0.00000E+0,1.00000,1,  100.0, 10000.000,-10000.000,   1,1.0000
    73,'1 ',     0.000,     9.651,   100.000,  -100.000,0.99100,     0,   100.000, 0.00000E+0, 1.00000E+0, 0.00000E+0, 0.00000E+0,1.00000,1,  100.0, 10000.000,-10000.000,   1,1.0000
    74,'1 ',     0.000,    -5.628,     9.000,    -6.000,0.95800,     0,   100.000, 0.00000E+0, 1.00000E+0, 0.00000E+0, 0.00000E+0,1.00000,1,  100.0, 10000.000,-10000.000,   1,1.0000
    76,'1 ',     0.000,     5.269,    23.000,    -8.000,0.94300,     0,   100.000, 0.00000E+0, 1.00000E+0, 0.00000E+0, 0.00000E+0,1.00000,1,  100.0, 10000.000,-10000.000,   1,1.0000
    77,'1 ',     0.000,    11.943,    70.000,   -20.000,1.00600,     0,   100.000, 0.00000E+0, 1.00000E+0, 0.00000E+0, 0.00000E+0,1.00000,1,  100.0, 10000.000,-10000.000,   1,1.0000
    80,'1 ',   477.000,   105.050,   280.000,  -165.000,1.04000,     0,   100.000, 0.00000E+0, 1.00000E+0, 0.00000E+0, 0.00000E+0,1.00000,1,  100.0, 10000.000,-10000.000,   1,1.0000
    85,'1 ',     0.000,    -5.768,    23.000,    -8.000,0.98500,     0,   100.000, 0.00000E+0, 1.00000E+0, 0.00000E+0, 0.00000E+0,1.00000,1,  100.0, 10000.000,-10000.000,   1,1.0000
    87,'1 ',     4.000,    11.022,  1000.000,  -100.000,1.01500,     0,   100.000, 0.00000E+0, 1.00000E+0, 0.00000E+0, 0.00000E+0,1.00000,1,  100.0, 10000.000,-10000.000,   1,1.0000
    89,'1 ',   607.000,   -11.794,   300.000,  -210.000,1.00500,     0,   100.000, 0.00000E+0, 1.00000E+0, 0.00000E+0, 0.00000E+0,1.00000,1,  100.0, 10000.000,-10000.000,   1,1.0000
    90,'1 ',     0.000,    59.300,   300.000,  -300.000,0.98500,     0,   100.000, 0.00000E+0, 1.00000E+0, 0.00000E+0, 0.00000E+0,1.00000,1,  100.0, 10000.000,-10000.000,   1,1.0000
    91,'1 ',     0.000,   -14.847,   100.000,  -100.000,0.98000,     0,   100.000, 0.00000E+0, 1.00000E+0, 0.00000E+0, 0.00000E+0,1.00000,1,  100.0, 10000.000,-10000.000,   1,1.0000
    92,'1 ',     0.000,    -3.000,     9.000,    -3.000,0.99000,     0,   100.000, 0.00000E+0, 1.00000E+0, 0.00000E+0, 0.00000E+0,1.00000,1,  100.0, 10000.000,-10000.000,   1,1.0000
    99,'1 ',     0.000,   -17.537,   100.000,  -100.000,1.01000,     0,   100.000, 0.00000E+0, 1.00000E+0, 0.00000E+0, 0.00000E+0,1.00000,1,  100.0, 10000.000,-10000.000,   1,1.0000
   100,'1 ',   252.000,   110.058,   155.000,   -50.000,1.01700,     0,   100.000, 0.00000E+0, 1.00000E+0, 0.00000E+0, 0.00000E+0,1.00000,1,  100.0, 10000.000,-10000.000,   1,1.0000
   103,'1 ',    40.000,    40.000,    40.000,   -15.000,1.01000,     0,   100.000, 0.00000E+0, 1.00000E+0, 0.00000E+0, 0.00000E+0,1.00000,1,  100.0, 10000.000,-10000.000,   1,1.0000
   104,'1 ',     0.000,     5.643,    23.000,    -8.000,0.97100,     0,   100.000, 0.00000E+0, 1.00000E+0, 0.00000E+0, 0.00000E+0,1.00000,1,  100.0, 10000.000,-10000.000,   1,1.0000
   105,'1 ',     0.000,    -8.000,    23.000,    -8.000,0.96500,     0,   100.000, 0.00000E+0, 1.00000E+0, 0.00000E+0, 0.00000E+0,1.00000,1,  100.0, 10000.000,-10000.000,   1,1.0000
   107,'1 ',     0.000,     5.694,   200.000,  -200.000,0.95200,     0,   100.000, 0.00000E+0, 1.00000E+0, 0.00000E+0, 0.00000E+0,1.00000,1,  100.0, 10000.000,-10000.000,   1,1.0000
   110,'1 ',     0.000,     4.854,    23.000,    -8.000,0.97300,     0,   100.000, 0.00000E+0, 1.00000E+0, 0.00000E+0, 0.00000E+0,1.00000,1,  100.0, 10000.000,-10000.000,   1,1.0000
   111,'1 ',    36.000,    -1.844,  1000.000,  -100.000,0.98000,     0,   100.000, 0.00000E+0, 1.00000E+0, 0.00000E+0, 0.00000E+0,1.00000,1,  100.0, 10000.000,-10000.000,   1,1.0000
   112,'1 ',     0.000,    41.512,  1000.000,  -100.000,0.97500,     0,   100.000, 0.00000E+0, 1.00000E+0, 0.00000E+0, 0.00000E+0,1.00000,1,  100.0, 10000.000,-10000.000,   1,1.0000
   113,'1 ',     0.000,     6.323,   200.000,  -100.000,0.99300,     0,   100.000, 0.00000E+0, 1.00000E+0, 0.00000E+0, 0.00000E+0,1.00000,1,  100.0, 10000.000,-10000.000,   1,1.0000
   116,'1 ',     0.000,    51.324,  1000.000, -1000.000,1.00500,     0,   100.000, 0.00000E+0, 1.00000E+0, 0.00000E+0, 0.00000E+0,1.00000,1,  100.0, 10000.000,-10000.000,   1,1.0000
 0 /End of Generator data, Begin Branch data
     1,      2,'1 ', 3.03000E-2, 9.99000E-2,   0.02540,    0.00,    0.00,    0.00,  0.00000,  0.00000,  0.00000,  0.00000,1,1,   0.00,   1,1.0000
     1,      3,'1 ', 1.29000E-2, 4.24000E-2,   0.01082,    0.00,    0.00,    0.00,  0.00000,  0.00000,  0.00000,  0.00000,1,1,   0.00,   1,1.0000
     2,     12,'1 ', 1.87000E-2, 6.16000E-2,   0.01572,    0.00,    0.00,    0.00,  0.00000,  0.00000,  0.00000,  0.00000,1,1,   0.00,   1,1.0000
     3,      5,'1 ', 2.41000E-2, 1.08000E-1,   0.02840,    0.00,    0.00,    0.00,  0.00000,  0.00000,  0.00000,  0.00000,1,1,   0.00,   1,1.0000
     3,     12,'1 ', 4.84000E-2, 1.60000E-1,   0.04060,    0.00,    0.00,    0.00,  0.00000,  0.00000,  0.00000,  0.00000,1,1,   0.00,   1,1.0000
     4,      5,'1 ', 1.76000E-3, 7.98000E-3,   0.00210,    0.00,    0.00,    0.00,  0.00000,  0.00000,  0.00000,  0.00000,1,1,   0.00,   1,1.0000
     4,     11,'1 ', 2.09000E-2, 6.88000E-2,   0.01748,    0.00,    0.00,    0.00,  0.00000,  0.00000,  0.00000,  0.00000,1,1,   0.00,   1,1.0000
     5,      6,'1 ', 1.19000E-2, 5.40000E-2,   0.01426,    0.00,    0.00,    0.00,  0.00000,  0.00000,  0.00000,  0.00000,1,1,   0.00,   1,1.0000
     5,     11,'1 ', 2.03000E-2, 6.82000E-2,   0.01738,    0.00,    0.00,    0.00,  0.00000,  0.00000,  0.00000,  0.00000,1,1,   0.00,   1,1.0000
     6,      7,'1 ', 4.59000E-3, 2.08000E-2,   0.00550,    0.00,    0.00,    0.00,  0.00000,  0.00000,  0.00000,  0.00000,1,1,   0.00,   1,1.0000
     7,     12,'1 ', 8.62000E-3, 3.40000E-2,   0.00874,    0.00,    0.00,    0.00,  0.00000,  0.00000,  0.00000,  0.00000,1,1,   0.00,   1,1.0000
     8,      9,'1 ', 2.44000E-3, 3.05000E-2,   1.16200,    0.00,    0.00,    0.00,  0.00000,  0.00000,  0.00000,  0.00000,1,1,   0.00,   1,1.0000